1.0
     RDKit          2D

 31 34  0  0  0  0  0  0  0  0999 V2000
    0.0000   -0.0000   -0.0000 O   0  0  0  0  0  0  0  0  0  0  0  0
   -1.3208    0.7735   -0.0000 C   0  0  0  0  0  0  0  0  0  0  0  0
   -2.6416    0.0476   -0.0000 N   0  0  0  0  0  0  0  0  0  0  0  0
   -1.3446    2.2966   -0.0000 C   0  0  0  0  0  0  0  0  0  0  0  0
   -3.9625    0.8686   -0.0000 C   0  0  0  0  0  0  0  0  0  0  0  0
   -2.6654   -1.4279   -0.0000 C   0  0  0  0  0  0  0  0  0  0  0  0
   -2.6654    3.0700   -0.0000 C   0  0  0  0  0  0  0  0  0  0  0  0
   -5.2833    0.1428   -0.0000 N   0  0  0  0  0  0  0  0  0  0  0  0
   -3.9863    2.3918   -0.0000 C   0  0  0  0  0  0  0  0  0  0  0  0
   -3.9030   -2.2847   -0.0000 C   0  0  0  0  0  0  0  0  0  0  0  0
   -1.4755   -2.2847   -0.0000 C   0  0  0  0  0  0  0  0  0  0  0  0
   -6.6041    0.9162   -0.0000 C   0  0  0  0  0  0  0  0  0  0  0  0
   -5.3071    3.1652   -0.0000 C   0  0  0  0  0  0  0  0  0  0  0  0
   -3.4627   -3.6888   -0.0000 C   0  0  0  0  0  0  0  0  0  0  0  0
   -1.9634   -3.6888   -0.0000 C   0  0  0  0  0  0  0  0  0  0  0  0
   -6.6279    2.4394   -0.0000 N   0  0  0  0  0  0  0  0  0  0  0  0
   -7.9249    0.1904   -0.0000 N   0  0  0  0  0  0  0  0  0  0  0  0
   -7.9487   -1.2851   -0.0000 C   0  0  0  0  0  0  0  0  0  0  0  0
   -9.2695   -2.0110   -0.0000 C   0  0  0  0  0  0  0  0  0  0  0  0
   -6.6755   -2.0110   -0.0000 C   0  0  0  0  0  0  0  0  0  0  0  0
   -9.2933   -3.4865   -0.0000 C   0  0  0  0  0  0  0  0  0  0  0  0
   -6.6993   -3.4865   -0.0000 C   0  0  0  0  0  0  0  0  0  0  0  0
   -8.0201   -4.2242   -0.0000 C   0  0  0  0  0  0  0  0  0  0  0  0
   -8.0439   -5.6998   -0.0000 O   0  0  0  0  0  0  0  0  0  0  0  0
   -6.7707   -6.4256   -0.0000 C   0  0  0  0  0  0  0  0  0  0  0  0
   -6.7945   -7.9011   -0.0000 C   0  0  0  0  0  0  0  0  0  0  0  0
   -8.1153   -8.6270   -0.0000 N   0  0  0  0  0  0  0  0  0  0  0  0
   -9.4361   -7.8535   -0.0000 C   0  0  0  0  0  0  0  0  0  0  0  0
   -8.1391  -10.1025   -0.0000 C   0  0  0  0  0  0  0  0  0  0  0  0
  -10.7569   -8.5794   -0.0000 C   0  0  0  0  0  0  0  0  0  0  0  0
   -9.4599  -10.8402   -0.0000 C   0  0  0  0  0  0  0  0  0  0  0  0
  1  2  2  0
  2  3  1  0
  2  4  1  0
  3  5  1  0
  3  6  1  0
  4  7  2  0
  5  8  2  0
  5  9  1  0
  6 10  1  0
  6 11  1  0
  8 12  1  0
  9 13  2  0
 10 14  1  0
 11 15  1  0
 12 16  2  0
 12 17  1  0
 17 18  1  0
 18 19  2  0
 18 20  1  0
 19 21  1  0
 20 22  2  0
 21 23  2  0
 23 24  1  0
 24 25  1  0
 25 26  1  0
 26 27  1  0
 27 28  1  0
 27 29  1  0
 28 30  1  0
 29 31  1  0
  7  9  1  0
 13 16  1  0
 14 15  1  0
 22 23  1  0
M  END
>  <Target>  (1) 
Cyclin-Dependent Kinase 4 (CDK4))

>  <IC50 (nM)>  (1) 
0.7

>  <pIC50>  (1) 
9.1549

$$$$
2.0
     RDKit          2D

 31 35  0  0  0  0  0  0  0  0999 V2000
    0.0000   -0.0000   -0.0000 O   0  0  0  0  0  0  0  0  0  0  0  0
   -1.3246    0.7638   -0.0000 C   0  0  0  0  0  0  0  0  0  0  0  0
   -2.6493    0.0358   -0.0000 N   0  0  0  0  0  0  0  0  0  0  0  0
   -1.3485    2.2913   -0.0000 C   0  0  0  0  0  0  0  0  0  0  0  0
   -3.9739    0.8592   -0.0000 C   0  0  0  0  0  0  0  0  0  0  0  0
   -2.6970   -1.4440   -0.0000 C   0  0  0  0  0  0  0  0  0  0  0  0
   -2.6731    3.0670   -0.0000 C   0  0  0  0  0  0  0  0  0  0  0  0
   -5.2986    0.1313   -0.0000 N   0  0  0  0  0  0  0  0  0  0  0  0
   -3.9978    2.3867   -0.0000 C   0  0  0  0  0  0  0  0  0  0  0  0
   -4.0217   -2.1719   -0.0000 C   0  0  0  0  0  0  0  0  0  0  0  0
   -1.4201   -2.1719   -0.0000 C   0  0  0  0  0  0  0  0  0  0  0  0
   -6.6232    0.8950   -0.0000 C   0  0  0  0  0  0  0  0  0  0  0  0
   -5.3224    3.1505   -0.0000 C   0  0  0  0  0  0  0  0  0  0  0  0
   -4.0455   -3.6517   -0.0000 C   0  0  0  0  0  0  0  0  0  0  0  0
   -1.4440   -3.6517   -0.0000 C   0  0  0  0  0  0  0  0  0  0  0  0
   -6.6471    2.4225   -0.0000 N   0  0  0  0  0  0  0  0  0  0  0  0
   -7.9478    0.1671   -0.0000 N   0  0  0  0  0  0  0  0  0  0  0  0
   -2.7686   -4.3797   -0.0000 C   0  0  0  0  0  0  0  0  0  0  0  0
   -7.9717   -1.3127   -0.0000 C   0  0  0  0  0  0  0  0  0  0  0  0
   -9.2964   -2.0407   -0.0000 C   0  0  0  0  0  0  0  0  0  0  0  0
   -6.6948   -2.0407   -0.0000 C   0  0  0  0  0  0  0  0  0  0  0  0
   -9.3202   -3.5204   -0.0000 C   0  0  0  0  0  0  0  0  0  0  0  0
   -6.7187   -3.5204   -0.0000 C   0  0  0  0  0  0  0  0  0  0  0  0
   -8.0433   -4.2603   -0.0000 C   0  0  0  0  0  0  0  0  0  0  0  0
   -8.0672   -5.7401   -0.0000 N   0  0  0  0  0  0  0  0  0  0  0  0
   -6.7903   -6.4681   -0.0000 C   0  0  0  0  0  0  0  0  0  0  0  0
   -9.3918   -6.4681   -0.0000 C   0  0  0  0  0  0  0  0  0  0  0  0
   -6.8141   -7.9478   -0.0000 C   0  0  0  0  0  0  0  0  0  0  0  0
   -9.4157   -7.9478   -0.0000 C   0  0  0  0  0  0  0  0  0  0  0  0
   -8.1388   -8.6758   -0.0000 N   0  0  0  0  0  0  0  0  0  0  0  0
   -8.1627  -10.1556   -0.0000 C   0  0  0  0  0  0  0  0  0  0  0  0
  1  2  2  0
  2  3  1  0
  2  4  1  0
  3  5  1  0
  3  6  1  0
  4  7  2  0
  5  8  2  0
  5  9  1  0
  6 10  1  0
  6 11  1  0
  8 12  1  0
  9 13  2  0
 10 14  1  0
 11 15  1  0
 12 16  2  0
 12 17  1  0
 14 18  1  0
 17 19  1  0
 19 20  2  0
 19 21  1  0
 20 22  1  0
 21 23  2  0
 22 24  2  0
 24 25  1  0
 25 26  1  0
 25 27  1  0
 26 28  1  0
 27 29  1  0
 28 30  1  0
 30 31  1  0
  7  9  1  0
 13 16  1  0
 15 18  1  0
 23 24  1  0
 29 30  1  0
M  END
>  <Target>  (2) 
Cyclin-Dependent Kinase 4 (CDK4))

>  <IC50 (nM)>  (2) 
4.0

>  <pIC50>  (2) 
8.3979

$$$$
3.0
     RDKit          2D

 33 36  0  0  0  0  0  0  0  0999 V2000
    0.0000   -0.0000   -0.0000 O   0  0  0  0  0  0  0  0  0  0  0  0
   -1.3228    0.7627   -0.0000 C   0  0  0  0  0  0  0  0  0  0  0  0
   -2.6457    0.0358   -0.0000 N   0  0  0  0  0  0  0  0  0  0  0  0
   -1.3467    2.2881   -0.0000 C   0  0  0  0  0  0  0  0  0  0  0  0
   -3.9685    0.8581   -0.0000 C   0  0  0  0  0  0  0  0  0  0  0  0
   -2.6695   -1.4420   -0.0000 C   0  0  0  0  0  0  0  0  0  0  0  0
   -2.6695    3.0509   -0.0000 C   0  0  0  0  0  0  0  0  0  0  0  0
   -5.2913    0.1311   -0.0000 N   0  0  0  0  0  0  0  0  0  0  0  0
   -3.9923    2.3835   -0.0000 C   0  0  0  0  0  0  0  0  0  0  0  0
   -4.0400   -2.0736   -0.0000 C   0  0  0  0  0  0  0  0  0  0  0  0
   -1.3467   -2.0736   -0.0000 C   0  0  0  0  0  0  0  0  0  0  0  0
   -6.6142    0.9057   -0.0000 C   0  0  0  0  0  0  0  0  0  0  0  0
   -5.3152    3.1581   -0.0000 C   0  0  0  0  0  0  0  0  0  0  0  0
   -4.3975   -3.5156   -0.0000 C   0  0  0  0  0  0  0  0  0  0  0  0
   -1.0368   -3.5156   -0.0000 C   0  0  0  0  0  0  0  0  0  0  0  0
   -6.6380    2.4312   -0.0000 N   0  0  0  0  0  0  0  0  0  0  0  0
   -7.9370    0.1788   -0.0000 N   0  0  0  0  0  0  0  0  0  0  0  0
   -3.4918   -4.6597   -0.0000 C   0  0  0  0  0  0  0  0  0  0  0  0
   -1.9902   -4.6597   -0.0000 C   0  0  0  0  0  0  0  0  0  0  0  0
   -7.9609   -1.2990   -0.0000 C   0  0  0  0  0  0  0  0  0  0  0  0
   -9.2837   -2.0260   -0.0000 C   0  0  0  0  0  0  0  0  0  0  0  0
   -6.6857   -2.0260   -0.0000 C   0  0  0  0  0  0  0  0  0  0  0  0
   -9.3075   -3.5037   -0.0000 C   0  0  0  0  0  0  0  0  0  0  0  0
   -6.7095   -3.5037   -0.0000 C   0  0  0  0  0  0  0  0  0  0  0  0
   -8.0324   -4.2426   -0.0000 C   0  0  0  0  0  0  0  0  0  0  0  0
   -8.0562   -5.7204   -0.0000 O   0  0  0  0  0  0  0  0  0  0  0  0
   -6.7810   -6.4473   -0.0000 C   0  0  0  0  0  0  0  0  0  0  0  0
   -6.8049   -7.9251   -0.0000 C   0  0  0  0  0  0  0  0  0  0  0  0
   -8.1277   -8.6521   -0.0000 N   0  0  0  0  0  0  0  0  0  0  0  0
   -9.4505   -7.8893   -0.0000 C   0  0  0  0  0  0  0  0  0  0  0  0
   -8.1515  -10.1298   -0.0000 C   0  0  0  0  0  0  0  0  0  0  0  0
  -10.7734   -8.6163   -0.0000 C   0  0  0  0  0  0  0  0  0  0  0  0
   -9.4744  -10.8687   -0.0000 C   0  0  0  0  0  0  0  0  0  0  0  0
  1  2  2  0
  2  3  1  0
  2  4  1  0
  3  5  1  0
  3  6  1  0
  4  7  2  0
  5  8  2  0
  5  9  1  0
  6 10  1  0
  6 11  1  0
  8 12  1  0
  9 13  2  0
 10 14  1  0
 11 15  1  0
 12 16  2  0
 12 17  1  0
 14 18  1  0
 15 19  1  0
 17 20  1  0
 20 21  2  0
 20 22  1  0
 21 23  1  0
 22 24  2  0
 23 25  2  0
 25 26  1  0
 26 27  1  0
 27 28  1  0
 28 29  1  0
 29 30  1  0
 29 31  1  0
 30 32  1  0
 31 33  1  0
  7  9  1  0
 13 16  1  0
 18 19  1  0
 24 25  1  0
M  END
>  <Target>  (3) 
Cyclin-Dependent Kinase 4 (CDK4))

>  <IC50 (nM)>  (3) 
4.0

>  <pIC50>  (3) 
8.3979

$$$$
4.0
     RDKit          2D

 32 37  0  0  0  0  0  0  0  0999 V2000
    0.0000   -0.0000   -0.0000 O   0  0  0  0  0  0  0  0  0  0  0  0
   -1.2981    0.7485   -0.0000 C   0  0  0  0  0  0  0  0  0  0  0  0
   -2.5963    0.0351   -0.0000 N   0  0  0  0  0  0  0  0  0  0  0  0
   -1.3215    2.2454   -0.0000 C   0  0  0  0  0  0  0  0  0  0  0  0
   -3.8944    0.8420   -0.0000 C   0  0  0  0  0  0  0  0  0  0  0  0
   -2.6197   -1.4151   -0.0000 C   0  0  0  0  0  0  0  0  0  0  0  0
   -2.6197    2.9939   -0.0000 C   0  0  0  0  0  0  0  0  0  0  0  0
   -5.1925    0.1286   -0.0000 N   0  0  0  0  0  0  0  0  0  0  0  0
   -3.9178    2.3390   -0.0000 C   0  0  0  0  0  0  0  0  0  0  0  0
   -4.0698   -2.1986   -0.0000 C   0  0  0  0  0  0  0  0  0  0  0  0
   -1.9297   -2.3975   -0.0000 C   0  0  0  0  0  0  0  0  0  0  0  0
   -6.4907    0.8771   -0.0000 C   0  0  0  0  0  0  0  0  0  0  0  0
   -5.2159    3.0875   -0.0000 C   0  0  0  0  0  0  0  0  0  0  0  0
   -5.4966   -1.6958   -0.0000 C   0  0  0  0  0  0  0  0  0  0  0  0
   -3.9646   -3.5669   -0.0000 C   0  0  0  0  0  0  0  0  0  0  0  0
   -3.1810   -3.1693   -0.0000 C   0  0  0  0  0  0  0  0  0  0  0  0
   -6.5141    2.3741   -0.0000 N   0  0  0  0  0  0  0  0  0  0  0  0
   -7.7888    0.1637   -0.0000 N   0  0  0  0  0  0  0  0  0  0  0  0
   -3.2863   -4.7014   -0.0000 C   0  0  0  0  0  0  0  0  0  0  0  0
   -7.8122   -1.2864   -0.0000 C   0  0  0  0  0  0  0  0  0  0  0  0
   -9.1103   -1.9998   -0.0000 C   0  0  0  0  0  0  0  0  0  0  0  0
   -6.5608   -1.9998   -0.0000 C   0  0  0  0  0  0  0  0  0  0  0  0
   -9.1337   -3.4500   -0.0000 C   0  0  0  0  0  0  0  0  0  0  0  0
   -6.5842   -3.4500   -0.0000 C   0  0  0  0  0  0  0  0  0  0  0  0
   -7.8824   -4.1751   -0.0000 C   0  0  0  0  0  0  0  0  0  0  0  0
   -7.9058   -5.6253   -0.0000 N   0  0  0  0  0  0  0  0  0  0  0  0
   -9.2039   -6.3386   -0.0000 C   0  0  0  0  0  0  0  0  0  0  0  0
   -6.6544   -6.3386   -0.0000 C   0  0  0  0  0  0  0  0  0  0  0  0
   -9.2273   -7.7888   -0.0000 C   0  0  0  0  0  0  0  0  0  0  0  0
   -6.6778   -7.7888   -0.0000 C   0  0  0  0  0  0  0  0  0  0  0  0
   -7.9759   -8.5022   -0.0000 N   0  0  0  0  0  0  0  0  0  0  0  0
   -7.9993   -9.9524   -0.0000 C   0  0  0  0  0  0  0  0  0  0  0  0
  1  2  2  0
  2  3  1  0
  2  4  1  0
  3  5  1  0
  3  6  1  0
  4  7  2  0
  5  8  2  0
  5  9  1  0
  6 10  1  0
  6 11  1  0
  8 12  1  0
  9 13  2  0
 10 14  1  0
 10 15  1  0
 11 16  1  0
 12 17  2  0
 12 18  1  0
 15 19  1  0
 18 20  1  0
 20 21  2  0
 20 22  1  0
 21 23  1  0
 22 24  2  0
 23 25  2  0
 25 26  1  0
 26 27  1  0
 26 28  1  0
 27 29  1  0
 28 30  1  0
 29 31  1  0
 31 32  1  0
  7  9  1  0
 13 17  1  0
 14 16  1  0
 16 19  1  0
 24 25  1  0
 30 31  1  0
M  END
>  <Target>  (4) 
Cyclin-Dependent Kinase 4 (CDK4))

>  <IC50 (nM)>  (4) 
6.0

>  <pIC50>  (4) 
8.2218

$$$$
5.0
     RDKit          2D

 35 40  0  0  0  0  0  0  0  0999 V2000
    0.0000   -0.0000   -0.0000 O   0  0  0  0  0  0  0  0  0  0  0  0
   -1.3006    0.7616   -0.0000 C   0  0  0  0  0  0  0  0  0  0  0  0
   -2.6012    0.0469   -0.0000 N   0  0  0  0  0  0  0  0  0  0  0  0
   -1.3241    2.2614   -0.0000 C   0  0  0  0  0  0  0  0  0  0  0  0
   -3.9019    0.8554   -0.0000 C   0  0  0  0  0  0  0  0  0  0  0  0
   -2.6247   -1.4061   -0.0000 C   0  0  0  0  0  0  0  0  0  0  0  0
   -2.6247    3.0231   -0.0000 C   0  0  0  0  0  0  0  0  0  0  0  0
   -5.2025    0.1406   -0.0000 N   0  0  0  0  0  0  0  0  0  0  0  0
   -3.9253    2.3552   -0.0000 C   0  0  0  0  0  0  0  0  0  0  0  0
   -4.0776   -2.1911   -0.0000 C   0  0  0  0  0  0  0  0  0  0  0  0
   -1.9334   -2.3903   -0.0000 C   0  0  0  0  0  0  0  0  0  0  0  0
   -6.5031    0.9022   -0.0000 C   0  0  0  0  0  0  0  0  0  0  0  0
   -5.2259    3.1168   -0.0000 C   0  0  0  0  0  0  0  0  0  0  0  0
   -5.5071   -1.6873   -0.0000 C   0  0  0  0  0  0  0  0  0  0  0  0
   -3.9722   -3.5621   -0.0000 C   0  0  0  0  0  0  0  0  0  0  0  0
   -3.1871   -3.1637   -0.0000 C   0  0  0  0  0  0  0  0  0  0  0  0
   -6.5265    2.4020   -0.0000 N   0  0  0  0  0  0  0  0  0  0  0  0
   -7.8037    0.1875   -0.0000 N   0  0  0  0  0  0  0  0  0  0  0  0
   -3.2926   -4.6986   -0.0000 C   0  0  0  0  0  0  0  0  0  0  0  0
   -7.8271   -1.2655   -0.0000 C   0  0  0  0  0  0  0  0  0  0  0  0
   -9.1278   -1.9802   -0.0000 C   0  0  0  0  0  0  0  0  0  0  0  0
   -6.5734   -1.9802   -0.0000 C   0  0  0  0  0  0  0  0  0  0  0  0
   -9.1512   -3.4332   -0.0000 C   0  0  0  0  0  0  0  0  0  0  0  0
   -6.5968   -3.4332   -0.0000 C   0  0  0  0  0  0  0  0  0  0  0  0
   -7.8974   -4.1596   -0.0000 C   0  0  0  0  0  0  0  0  0  0  0  0
   -7.9209   -5.6126   -0.0000 N   0  0  0  0  0  0  0  0  0  0  0  0
   -9.2215   -6.3273   -0.0000 C   0  0  0  0  0  0  0  0  0  0  0  0
   -6.6671   -6.3273   -0.0000 C   0  0  0  0  0  0  0  0  0  0  0  0
   -9.2449   -7.7803   -0.0000 C   0  0  0  0  0  0  0  0  0  0  0  0
   -6.6906   -7.7803   -0.0000 C   0  0  0  0  0  0  0  0  0  0  0  0
   -7.9912   -8.4950   -0.0000 C   0  0  0  0  0  0  0  0  0  0  0  0
   -8.0146   -9.9480   -0.0000 C   0  0  0  0  0  0  0  0  0  0  0  0
   -6.7609  -10.6744   -0.0000 C   0  0  0  0  0  0  0  0  0  0  0  0
   -5.5071   -9.9128   -0.0000 C   0  0  0  0  0  0  0  0  0  0  0  0
   -4.2534  -10.6393   -0.0000 O   0  0  0  0  0  0  0  0  0  0  0  0
  1  2  2  0
  2  3  1  0
  2  4  1  0
  3  5  1  0
  3  6  1  0
  4  7  2  0
  5  8  2  0
  5  9  1  0
  6 10  1  0
  6 11  1  0
  8 12  1  0
  9 13  2  0
 10 14  1  0
 10 15  1  0
 11 16  1  0
 12 17  2  0
 12 18  1  0
 15 19  1  0
 18 20  1  0
 20 21  2  0
 20 22  1  0
 21 23  1  0
 22 24  2  0
 23 25  2  0
 25 26  1  0
 26 27  1  0
 26 28  1  0
 27 29  1  0
 28 30  1  0
 29 31  1  0
 31 32  1  0
 32 33  1  0
 33 34  1  0
 34 35  1  0
  7  9  1  0
 13 17  1  0
 14 16  1  0
 16 19  1  0
 24 25  1  0
 30 31  1  0
M  END
>  <Target>  (5) 
Cyclin-Dependent Kinase 4 (CDK4))

>  <IC50 (nM)>  (5) 
8.0

>  <pIC50>  (5) 
8.0969

$$$$
6.0
     RDKit          2D

 30 34  0  0  0  0  0  0  0  0999 V2000
    0.0000   -0.0000   -0.0000 O   0  0  0  0  0  0  0  0  0  0  0  0
   -1.3239    0.7633   -0.0000 C   0  0  0  0  0  0  0  0  0  0  0  0
   -2.6478    0.0358   -0.0000 N   0  0  0  0  0  0  0  0  0  0  0  0
   -1.3478    2.2900   -0.0000 C   0  0  0  0  0  0  0  0  0  0  0  0
   -3.9718    0.8588   -0.0000 C   0  0  0  0  0  0  0  0  0  0  0  0
   -2.6956   -1.4432   -0.0000 C   0  0  0  0  0  0  0  0  0  0  0  0
   -2.6717    3.0653   -0.0000 C   0  0  0  0  0  0  0  0  0  0  0  0
   -5.2957    0.1312   -0.0000 N   0  0  0  0  0  0  0  0  0  0  0  0
   -3.9956    2.3854   -0.0000 C   0  0  0  0  0  0  0  0  0  0  0  0
   -3.9360   -2.3020   -0.0000 C   0  0  0  0  0  0  0  0  0  0  0  0
   -1.5028   -2.3020   -0.0000 C   0  0  0  0  0  0  0  0  0  0  0  0
   -6.6196    0.8945   -0.0000 C   0  0  0  0  0  0  0  0  0  0  0  0
   -5.3196    3.1488   -0.0000 C   0  0  0  0  0  0  0  0  0  0  0  0
   -3.4947   -3.7094   -0.0000 C   0  0  0  0  0  0  0  0  0  0  0  0
   -1.9918   -3.7094   -0.0000 C   0  0  0  0  0  0  0  0  0  0  0  0
   -6.6435    2.4212   -0.0000 N   0  0  0  0  0  0  0  0  0  0  0  0
   -7.9435    0.1670   -0.0000 N   0  0  0  0  0  0  0  0  0  0  0  0
   -7.9674   -1.3120   -0.0000 C   0  0  0  0  0  0  0  0  0  0  0  0
   -9.2913   -2.0396   -0.0000 C   0  0  0  0  0  0  0  0  0  0  0  0
   -6.6912   -2.0396   -0.0000 C   0  0  0  0  0  0  0  0  0  0  0  0
   -9.3152   -3.5185   -0.0000 C   0  0  0  0  0  0  0  0  0  0  0  0
   -6.7150   -3.5185   -0.0000 C   0  0  0  0  0  0  0  0  0  0  0  0
   -8.0390   -4.2580   -0.0000 C   0  0  0  0  0  0  0  0  0  0  0  0
   -8.0628   -5.7370   -0.0000 N   0  0  0  0  0  0  0  0  0  0  0  0
   -6.7866   -6.4646   -0.0000 C   0  0  0  0  0  0  0  0  0  0  0  0
   -9.3867   -6.4646   -0.0000 C   0  0  0  0  0  0  0  0  0  0  0  0
   -6.8105   -7.9435   -0.0000 C   0  0  0  0  0  0  0  0  0  0  0  0
   -9.4106   -7.9435   -0.0000 C   0  0  0  0  0  0  0  0  0  0  0  0
   -8.1344   -8.6711   -0.0000 N   0  0  0  0  0  0  0  0  0  0  0  0
   -8.1582  -10.1501   -0.0000 C   0  0  0  0  0  0  0  0  0  0  0  0
  1  2  2  0
  2  3  1  0
  2  4  1  0
  3  5  1  0
  3  6  1  0
  4  7  2  0
  5  8  2  0
  5  9  1  0
  6 10  1  0
  6 11  1  0
  8 12  1  0
  9 13  2  0
 10 14  1  0
 11 15  1  0
 12 16  2  0
 12 17  1  0
 17 18  1  0
 18 19  2  0
 18 20  1  0
 19 21  1  0
 20 22  2  0
 21 23  2  0
 23 24  1  0
 24 25  1  0
 24 26  1  0
 25 27  1  0
 26 28  1  0
 27 29  1  0
 29 30  1  0
  7  9  1  0
 13 16  1  0
 14 15  1  0
 22 23  1  0
 28 29  1  0
M  END
>  <Target>  (6) 
Cyclin-Dependent Kinase 4 (CDK4))

>  <IC50 (nM)>  (6) 
9.0

>  <pIC50>  (6) 
8.0458

$$$$
7.0
     RDKit          2D

 32 35  0  0  0  0  0  0  0  0999 V2000
    0.0000   -0.0000   -0.0000 O   0  0  0  0  0  0  0  0  0  0  0  0
   -1.3219    0.7741   -0.0000 C   0  0  0  0  0  0  0  0  0  0  0  0
   -2.6438    0.0476   -0.0000 N   0  0  0  0  0  0  0  0  0  0  0  0
   -1.3457    2.2985   -0.0000 C   0  0  0  0  0  0  0  0  0  0  0  0
   -3.9657    0.8694   -0.0000 C   0  0  0  0  0  0  0  0  0  0  0  0
   -2.6676   -1.4291   -0.0000 C   0  0  0  0  0  0  0  0  0  0  0  0
   -2.6676    3.0606   -0.0000 C   0  0  0  0  0  0  0  0  0  0  0  0
   -5.2877    0.1429   -0.0000 N   0  0  0  0  0  0  0  0  0  0  0  0
   -3.9896    2.3937   -0.0000 C   0  0  0  0  0  0  0  0  0  0  0  0
   -3.9896   -2.1556   -0.0000 C   0  0  0  0  0  0  0  0  0  0  0  0
   -1.3934   -2.1556   -0.0000 C   0  0  0  0  0  0  0  0  0  0  0  0
   -6.6096    0.9051   -0.0000 C   0  0  0  0  0  0  0  0  0  0  0  0
   -5.3115    3.1678   -0.0000 C   0  0  0  0  0  0  0  0  0  0  0  0
   -4.0134   -3.6323   -0.0000 C   0  0  0  0  0  0  0  0  0  0  0  0
   -1.4172   -3.6323   -0.0000 C   0  0  0  0  0  0  0  0  0  0  0  0
   -6.6334    2.4295   -0.0000 N   0  0  0  0  0  0  0  0  0  0  0  0
   -7.9315    0.1786   -0.0000 N   0  0  0  0  0  0  0  0  0  0  0  0
   -2.7391   -4.3587   -0.0000 C   0  0  0  0  0  0  0  0  0  0  0  0
   -7.9553   -1.2981   -0.0000 C   0  0  0  0  0  0  0  0  0  0  0  0
   -9.2772   -2.0246   -0.0000 C   0  0  0  0  0  0  0  0  0  0  0  0
   -6.6810   -2.0246   -0.0000 C   0  0  0  0  0  0  0  0  0  0  0  0
   -9.3010   -3.5013   -0.0000 C   0  0  0  0  0  0  0  0  0  0  0  0
   -6.7048   -3.5013   -0.0000 C   0  0  0  0  0  0  0  0  0  0  0  0
   -8.0268   -4.2397   -0.0000 C   0  0  0  0  0  0  0  0  0  0  0  0
   -8.0506   -5.7164   -0.0000 O   0  0  0  0  0  0  0  0  0  0  0  0
   -6.7763   -6.4428   -0.0000 C   0  0  0  0  0  0  0  0  0  0  0  0
   -6.8001   -7.9196   -0.0000 C   0  0  0  0  0  0  0  0  0  0  0  0
   -8.1220   -8.6460   -0.0000 N   0  0  0  0  0  0  0  0  0  0  0  0
   -9.4439   -7.8719   -0.0000 C   0  0  0  0  0  0  0  0  0  0  0  0
   -8.1458  -10.1228   -0.0000 C   0  0  0  0  0  0  0  0  0  0  0  0
  -10.7659   -8.5984   -0.0000 C   0  0  0  0  0  0  0  0  0  0  0  0
   -9.4678  -10.8611   -0.0000 C   0  0  0  0  0  0  0  0  0  0  0  0
  1  2  2  0
  2  3  1  0
  2  4  1  0
  3  5  1  0
  3  6  1  0
  4  7  2  0
  5  8  2  0
  5  9  1  0
  6 10  1  0
  6 11  1  0
  8 12  1  0
  9 13  2  0
 10 14  1  0
 11 15  1  0
 12 16  2  0
 12 17  1  0
 14 18  1  0
 17 19  1  0
 19 20  2  0
 19 21  1  0
 20 22  1  0
 21 23  2  0
 22 24  2  0
 24 25  1  0
 25 26  1  0
 26 27  1  0
 27 28  1  0
 28 29  1  0
 28 30  1  0
 29 31  1  0
 30 32  1  0
  7  9  1  0
 13 16  1  0
 15 18  1  0
 23 24  1  0
M  END
>  <Target>  (7) 
Cyclin-Dependent Kinase 4 (CDK4))

>  <IC50 (nM)>  (7) 
11.0

>  <pIC50>  (7) 
7.9586

$$$$
8.0
     RDKit          2D

 30 33  0  0  0  0  0  0  0  0999 V2000
    0.0000   -0.0000   -0.0000 O   0  0  0  0  0  0  0  0  0  0  0  0
   -1.3233    0.7630   -0.0000 C   0  0  0  0  0  0  0  0  0  0  0  0
   -2.6466    0.0358   -0.0000 N   0  0  0  0  0  0  0  0  0  0  0  0
   -1.3471    2.2889   -0.0000 C   0  0  0  0  0  0  0  0  0  0  0  0
   -3.9699    0.8583   -0.0000 C   0  0  0  0  0  0  0  0  0  0  0  0
   -2.6943   -1.4425   -0.0000 C   0  0  0  0  0  0  0  0  0  0  0  0
   -2.6704    3.0519   -0.0000 C   0  0  0  0  0  0  0  0  0  0  0  0
   -5.2931    0.1311   -0.0000 N   0  0  0  0  0  0  0  0  0  0  0  0
   -3.9937    2.3843   -0.0000 C   0  0  0  0  0  0  0  0  0  0  0  0
   -4.0295   -2.1578   -0.0000 C   0  0  0  0  0  0  0  0  0  0  0  0
   -6.6164    0.8941   -0.0000 C   0  0  0  0  0  0  0  0  0  0  0  0
   -5.3170    3.1473   -0.0000 C   0  0  0  0  0  0  0  0  0  0  0  0
   -4.0772   -3.6361   -0.0000 C   0  0  0  0  0  0  0  0  0  0  0  0
   -6.6403    2.4201   -0.0000 N   0  0  0  0  0  0  0  0  0  0  0  0
   -7.9397    0.1669   -0.0000 N   0  0  0  0  0  0  0  0  0  0  0  0
   -5.4124   -4.3513   -0.0000 C   0  0  0  0  0  0  0  0  0  0  0  0
   -2.8135   -4.3871   -0.0000 C   0  0  0  0  0  0  0  0  0  0  0  0
   -7.9636   -1.3114   -0.0000 C   0  0  0  0  0  0  0  0  0  0  0  0
   -9.2869   -2.0386   -0.0000 C   0  0  0  0  0  0  0  0  0  0  0  0
   -6.6880   -2.0386   -0.0000 C   0  0  0  0  0  0  0  0  0  0  0  0
   -9.3107   -3.5168   -0.0000 C   0  0  0  0  0  0  0  0  0  0  0  0
   -6.7118   -3.5168   -0.0000 C   0  0  0  0  0  0  0  0  0  0  0  0
   -8.0351   -4.2560   -0.0000 C   0  0  0  0  0  0  0  0  0  0  0  0
   -8.0589   -5.7342   -0.0000 N   0  0  0  0  0  0  0  0  0  0  0  0
   -6.7833   -6.4615   -0.0000 C   0  0  0  0  0  0  0  0  0  0  0  0
   -9.3822   -6.4615   -0.0000 C   0  0  0  0  0  0  0  0  0  0  0  0
   -6.8072   -7.9397   -0.0000 C   0  0  0  0  0  0  0  0  0  0  0  0
   -9.4061   -7.9397   -0.0000 C   0  0  0  0  0  0  0  0  0  0  0  0
   -8.1305   -8.6669   -0.0000 N   0  0  0  0  0  0  0  0  0  0  0  0
   -8.1543  -10.1452   -0.0000 C   0  0  0  0  0  0  0  0  0  0  0  0
  1  2  2  0
  2  3  1  0
  2  4  1  0
  3  5  1  0
  3  6  1  0
  4  7  2  0
  5  8  2  0
  5  9  1  0
  6 10  1  0
  8 11  1  0
  9 12  2  0
 10 13  1  0
 11 14  2  0
 11 15  1  0
 13 16  1  0
 13 17  1  0
 15 18  1  0
 18 19  2  0
 18 20  1  0
 19 21  1  0
 20 22  2  0
 21 23  2  0
 23 24  1  0
 24 25  1  0
 24 26  1  0
 25 27  1  0
 26 28  1  0
 27 29  1  0
 29 30  1  0
  7  9  1  0
 12 14  1  0
 22 23  1  0
 28 29  1  0
M  END
>  <Target>  (8) 
Cyclin-Dependent Kinase 4 (CDK4))

>  <IC50 (nM)>  (8) 
13.0

>  <pIC50>  (8) 
7.8861

$$$$
9.0
     RDKit          2D

 28 31  0  0  0  0  0  0  0  0999 V2000
    0.0000   -0.0000   -0.0000 O   0  0  0  0  0  0  0  0  0  0  0  0
   -1.3233    0.7630   -0.0000 C   0  0  0  0  0  0  0  0  0  0  0  0
   -2.6466    0.0358   -0.0000 N   0  0  0  0  0  0  0  0  0  0  0  0
   -1.3471    2.2889   -0.0000 C   0  0  0  0  0  0  0  0  0  0  0  0
   -3.9698    0.8583   -0.0000 C   0  0  0  0  0  0  0  0  0  0  0  0
   -2.6942   -1.4425   -0.0000 C   0  0  0  0  0  0  0  0  0  0  0  0
   -2.6704    3.0519   -0.0000 C   0  0  0  0  0  0  0  0  0  0  0  0
   -5.2931    0.1311   -0.0000 N   0  0  0  0  0  0  0  0  0  0  0  0
   -3.9937    2.3843   -0.0000 C   0  0  0  0  0  0  0  0  0  0  0  0
   -4.0295   -2.1578   -0.0000 C   0  0  0  0  0  0  0  0  0  0  0  0
   -1.4306   -2.1816   -0.0000 C   0  0  0  0  0  0  0  0  0  0  0  0
   -6.6164    0.8941   -0.0000 C   0  0  0  0  0  0  0  0  0  0  0  0
   -5.3170    3.1473   -0.0000 C   0  0  0  0  0  0  0  0  0  0  0  0
   -6.6403    2.4201   -0.0000 N   0  0  0  0  0  0  0  0  0  0  0  0
   -7.9397    0.1669   -0.0000 N   0  0  0  0  0  0  0  0  0  0  0  0
   -7.9635   -1.3114   -0.0000 C   0  0  0  0  0  0  0  0  0  0  0  0
   -9.2868   -2.0386   -0.0000 C   0  0  0  0  0  0  0  0  0  0  0  0
   -6.6879   -2.0386   -0.0000 C   0  0  0  0  0  0  0  0  0  0  0  0
   -9.3107   -3.5168   -0.0000 C   0  0  0  0  0  0  0  0  0  0  0  0
   -6.7118   -3.5168   -0.0000 C   0  0  0  0  0  0  0  0  0  0  0  0
   -8.0351   -4.2560   -0.0000 C   0  0  0  0  0  0  0  0  0  0  0  0
   -8.0589   -5.7342   -0.0000 N   0  0  0  0  0  0  0  0  0  0  0  0
   -6.7833   -6.4614   -0.0000 C   0  0  0  0  0  0  0  0  0  0  0  0
   -9.3822   -6.4614   -0.0000 C   0  0  0  0  0  0  0  0  0  0  0  0
   -6.8072   -7.9397   -0.0000 C   0  0  0  0  0  0  0  0  0  0  0  0
   -9.4060   -7.9397   -0.0000 C   0  0  0  0  0  0  0  0  0  0  0  0
   -8.1304   -8.6669   -0.0000 N   0  0  0  0  0  0  0  0  0  0  0  0
   -8.1543  -10.1452   -0.0000 C   0  0  0  0  0  0  0  0  0  0  0  0
  1  2  2  0
  2  3  1  0
  2  4  1  0
  3  5  1  0
  3  6  1  0
  4  7  2  0
  5  8  2  0
  5  9  1  0
  6 10  1  0
  6 11  1  0
  8 12  1  0
  9 13  2  0
 12 14  2  0
 12 15  1  0
 15 16  1  0
 16 17  2  0
 16 18  1  0
 17 19  1  0
 18 20  2  0
 19 21  2  0
 21 22  1  0
 22 23  1  0
 22 24  1  0
 23 25  1  0
 24 26  1  0
 25 27  1  0
 27 28  1  0
  7  9  1  0
 13 14  1  0
 20 21  1  0
 26 27  1  0
M  END
>  <Target>  (9) 
Cyclin-Dependent Kinase 4 (CDK4))

>  <IC50 (nM)>  (9) 
32.0

>  <pIC50>  (9) 
7.4949

$$$$
10.0
     RDKit          2D

 33 37  0  0  0  0  0  0  0  0999 V2000
    0.0000   -0.0000   -0.0000 O   0  0  0  0  0  0  0  0  0  0  0  0
   -1.3268    0.7650   -0.0000 C   0  0  0  0  0  0  0  0  0  0  0  0
   -2.6535    0.0359   -0.0000 N   0  0  0  0  0  0  0  0  0  0  0  0
   -1.3507    2.2949   -0.0000 C   0  0  0  0  0  0  0  0  0  0  0  0
   -3.9803    0.8606   -0.0000 C   0  0  0  0  0  0  0  0  0  0  0  0
   -2.7013   -1.4463   -0.0000 C   0  0  0  0  0  0  0  0  0  0  0  0
   -2.6774    3.0599   -0.0000 C   0  0  0  0  0  0  0  0  0  0  0  0
   -5.3070    0.1315   -0.0000 N   0  0  0  0  0  0  0  0  0  0  0  0
   -4.0042    2.3906   -0.0000 C   0  0  0  0  0  0  0  0  0  0  0  0
   -3.9444   -2.2949   -0.0000 C   0  0  0  0  0  0  0  0  0  0  0  0
   -1.5180   -2.3069   -0.0000 C   0  0  0  0  0  0  0  0  0  0  0  0
   -6.6338    0.8965   -0.0000 C   0  0  0  0  0  0  0  0  0  0  0  0
   -5.3309    3.1555   -0.0000 C   0  0  0  0  0  0  0  0  0  0  0  0
   -3.5022   -3.7054   -0.0000 C   0  0  0  0  0  0  0  0  0  0  0  0
   -2.0200   -3.7173   -0.0000 C   0  0  0  0  0  0  0  0  0  0  0  0
   -6.6577    2.4264   -0.0000 N   0  0  0  0  0  0  0  0  0  0  0  0
   -7.9605    0.1673   -0.0000 N   0  0  0  0  0  0  0  0  0  0  0  0
   -7.9845   -1.3148   -0.0000 C   0  0  0  0  0  0  0  0  0  0  0  0
   -9.3112   -2.0439   -0.0000 C   0  0  0  0  0  0  0  0  0  0  0  0
   -6.7055   -2.0439   -0.0000 C   0  0  0  0  0  0  0  0  0  0  0  0
   -9.3351   -3.5261   -0.0000 C   0  0  0  0  0  0  0  0  0  0  0  0
   -6.7294   -3.5261   -0.0000 C   0  0  0  0  0  0  0  0  0  0  0  0
   -8.0562   -4.2671   -0.0000 C   0  0  0  0  0  0  0  0  0  0  0  0
   -8.0801   -5.7493   -0.0000 N   0  0  0  0  0  0  0  0  0  0  0  0
   -6.8011   -6.4784   -0.0000 C   0  0  0  0  0  0  0  0  0  0  0  0
   -9.4068   -6.4784   -0.0000 C   0  0  0  0  0  0  0  0  0  0  0  0
   -6.8250   -7.9605   -0.0000 C   0  0  0  0  0  0  0  0  0  0  0  0
   -9.4307   -7.9605   -0.0000 C   0  0  0  0  0  0  0  0  0  0  0  0
   -8.1518   -8.6897   -0.0000 C   0  0  0  0  0  0  0  0  0  0  0  0
   -8.1757  -10.1718   -0.0000 C   0  0  0  0  0  0  0  0  0  0  0  0
   -6.8968  -10.9129   -0.0000 C   0  0  0  0  0  0  0  0  0  0  0  0
   -6.9207  -12.3950   -0.0000 C   0  0  0  0  0  0  0  0  0  0  0  0
   -5.6417  -13.1361   -0.0000 O   0  0  0  0  0  0  0  0  0  0  0  0
  1  2  2  0
  2  3  1  0
  2  4  1  0
  3  5  1  0
  3  6  1  0
  4  7  2  0
  5  8  2  0
  5  9  1  0
  6 10  1  0
  6 11  1  0
  8 12  1  0
  9 13  2  0
 10 14  1  0
 11 15  1  0
 12 16  2  0
 12 17  1  0
 17 18  1  0
 18 19  2  0
 18 20  1  0
 19 21  1  0
 20 22  2  0
 21 23  2  0
 23 24  1  0
 24 25  1  0
 24 26  1  0
 25 27  1  0
 26 28  1  0
 27 29  1  0
 29 30  1  0
 30 31  1  0
 31 32  1  0
 32 33  1  0
  7  9  1  0
 13 16  1  0
 14 15  1  0
 22 23  1  0
 28 29  1  0
M  END
>  <Target>  (10) 
Cyclin-Dependent Kinase 4 (CDK4))

>  <IC50 (nM)>  (10) 
34.0

>  <pIC50>  (10) 
7.4685

$$$$
11.0
     RDKit          2D

 25 29  0  0  0  0  0  0  0  0999 V2000
    0.0000   -0.0000   -0.0000 O   0  0  0  0  0  0  0  0  0  0  0  0
   -1.2874    0.7539   -0.0000 C   0  0  0  0  0  0  0  0  0  0  0  0
   -2.5749    0.0464   -0.0000 N   0  0  0  0  0  0  0  0  0  0  0  0
   -1.3106    2.2385   -0.0000 C   0  0  0  0  0  0  0  0  0  0  0  0
   -3.8623    0.8467   -0.0000 C   0  0  0  0  0  0  0  0  0  0  0  0
   -2.5981   -1.3918   -0.0000 C   0  0  0  0  0  0  0  0  0  0  0  0
   -2.5981    2.9808   -0.0000 C   0  0  0  0  0  0  0  0  0  0  0  0
   -5.1498    0.1392   -0.0000 N   0  0  0  0  0  0  0  0  0  0  0  0
   -3.8855    2.3313   -0.0000 C   0  0  0  0  0  0  0  0  0  0  0  0
   -4.0363   -2.1689   -0.0000 C   0  0  0  0  0  0  0  0  0  0  0  0
   -1.9138   -2.3661   -0.0000 C   0  0  0  0  0  0  0  0  0  0  0  0
   -6.4372    0.8931   -0.0000 C   0  0  0  0  0  0  0  0  0  0  0  0
   -5.1730    3.0736   -0.0000 C   0  0  0  0  0  0  0  0  0  0  0  0
   -5.4513   -1.6702   -0.0000 C   0  0  0  0  0  0  0  0  0  0  0  0
   -3.9319   -3.5260   -0.0000 C   0  0  0  0  0  0  0  0  0  0  0  0
   -3.1548   -3.1316   -0.0000 C   0  0  0  0  0  0  0  0  0  0  0  0
   -6.4604    2.3777   -0.0000 N   0  0  0  0  0  0  0  0  0  0  0  0
   -7.7246    0.1856   -0.0000 N   0  0  0  0  0  0  0  0  0  0  0  0
   -3.2592   -4.6510   -0.0000 C   0  0  0  0  0  0  0  0  0  0  0  0
   -7.7478   -1.2526   -0.0000 C   0  0  0  0  0  0  0  0  0  0  0  0
   -9.0353   -1.9602   -0.0000 C   0  0  0  0  0  0  0  0  0  0  0  0
   -6.5068   -1.9602   -0.0000 C   0  0  0  0  0  0  0  0  0  0  0  0
   -9.0585   -3.3984   -0.0000 C   0  0  0  0  0  0  0  0  0  0  0  0
   -6.5300   -3.3984   -0.0000 C   0  0  0  0  0  0  0  0  0  0  0  0
   -7.8174   -4.1175   -0.0000 C   0  0  0  0  0  0  0  0  0  0  0  0
  1  2  2  0
  2  3  1  0
  2  4  1  0
  3  5  1  0
  3  6  1  0
  4  7  2  0
  5  8  2  0
  5  9  1  0
  6 10  1  0
  6 11  1  0
  8 12  1  0
  9 13  2  0
 10 14  1  0
 10 15  1  0
 11 16  1  0
 12 17  2  0
 12 18  1  0
 15 19  1  0
 18 20  1  0
 20 21  2  0
 20 22  1  0
 21 23  1  0
 22 24  2  0
 23 25  2  0
  7  9  1  0
 13 17  1  0
 14 16  1  0
 16 19  1  0
 24 25  1  0
M  END
>  <Target>  (11) 
Cyclin-Dependent Kinase 4 (CDK4))

>  <IC50 (nM)>  (11) 
38.0

>  <pIC50>  (11) 
7.4202

$$$$
12.0
     RDKit          2D

 29 31  0  0  0  0  0  0  0  0999 V2000
    0.0000   -0.0000   -0.0000 O   0  0  0  0  0  0  0  0  0  0  0  0
   -1.3197    0.7728   -0.0000 C   0  0  0  0  0  0  0  0  0  0  0  0
   -2.6395    0.0476   -0.0000 N   0  0  0  0  0  0  0  0  0  0  0  0
   -1.3435    2.2947   -0.0000 C   0  0  0  0  0  0  0  0  0  0  0  0
   -3.9592    0.8679   -0.0000 C   0  0  0  0  0  0  0  0  0  0  0  0
   -2.6633   -1.4267   -0.0000 C   0  0  0  0  0  0  0  0  0  0  0  0
   -2.6633    3.0675   -0.0000 C   0  0  0  0  0  0  0  0  0  0  0  0
   -5.2790    0.1427   -0.0000 N   0  0  0  0  0  0  0  0  0  0  0  0
   -3.9830    2.3898   -0.0000 C   0  0  0  0  0  0  0  0  0  0  0  0
   -3.9830   -2.1520   -0.0000 C   0  0  0  0  0  0  0  0  0  0  0  0
   -1.3911   -2.1520   -0.0000 C   0  0  0  0  0  0  0  0  0  0  0  0
   -6.5987    0.9155   -0.0000 C   0  0  0  0  0  0  0  0  0  0  0  0
   -5.3027    3.1626   -0.0000 C   0  0  0  0  0  0  0  0  0  0  0  0
   -6.6225    2.4374   -0.0000 N   0  0  0  0  0  0  0  0  0  0  0  0
   -7.9184    0.1902   -0.0000 N   0  0  0  0  0  0  0  0  0  0  0  0
   -7.9422   -1.2841   -0.0000 C   0  0  0  0  0  0  0  0  0  0  0  0
   -9.2620   -2.0093   -0.0000 C   0  0  0  0  0  0  0  0  0  0  0  0
   -6.6700   -2.0093   -0.0000 C   0  0  0  0  0  0  0  0  0  0  0  0
   -9.2857   -3.4836   -0.0000 C   0  0  0  0  0  0  0  0  0  0  0  0
   -6.6938   -3.4836   -0.0000 C   0  0  0  0  0  0  0  0  0  0  0  0
   -8.0136   -4.2208   -0.0000 C   0  0  0  0  0  0  0  0  0  0  0  0
   -8.0373   -5.6951   -0.0000 O   0  0  0  0  0  0  0  0  0  0  0  0
   -6.7652   -6.4204   -0.0000 C   0  0  0  0  0  0  0  0  0  0  0  0
   -6.7889   -7.8947   -0.0000 C   0  0  0  0  0  0  0  0  0  0  0  0
   -8.1087   -8.6199   -0.0000 N   0  0  0  0  0  0  0  0  0  0  0  0
   -9.4284   -7.8590   -0.0000 C   0  0  0  0  0  0  0  0  0  0  0  0
   -8.1325  -10.0942   -0.0000 C   0  0  0  0  0  0  0  0  0  0  0  0
  -10.7482   -8.5843   -0.0000 C   0  0  0  0  0  0  0  0  0  0  0  0
   -9.4522  -10.8314   -0.0000 C   0  0  0  0  0  0  0  0  0  0  0  0
  1  2  2  0
  2  3  1  0
  2  4  1  0
  3  5  1  0
  3  6  1  0
  4  7  2  0
  5  8  2  0
  5  9  1  0
  6 10  1  0
  6 11  1  0
  8 12  1  0
  9 13  2  0
 12 14  2  0
 12 15  1  0
 15 16  1  0
 16 17  2  0
 16 18  1  0
 17 19  1  0
 18 20  2  0
 19 21  2  0
 21 22  1  0
 22 23  1  0
 23 24  1  0
 24 25  1  0
 25 26  1  0
 25 27  1  0
 26 28  1  0
 27 29  1  0
  7  9  1  0
 13 14  1  0
 20 21  1  0
M  END
>  <Target>  (12) 
Cyclin-Dependent Kinase 4 (CDK4))

>  <IC50 (nM)>  (12) 
45.0

>  <pIC50>  (12) 
7.3468

$$$$
13.0
     RDKit          2D

 24 27  0  0  0  0  0  0  0  0999 V2000
    0.0000   -0.0000   -0.0000 O   0  0  0  0  0  0  0  0  0  0  0  0
   -1.3216    0.7620   -0.0000 C   0  0  0  0  0  0  0  0  0  0  0  0
   -2.6432    0.0357   -0.0000 N   0  0  0  0  0  0  0  0  0  0  0  0
   -1.3454    2.2860   -0.0000 C   0  0  0  0  0  0  0  0  0  0  0  0
   -3.9647    0.8572   -0.0000 C   0  0  0  0  0  0  0  0  0  0  0  0
   -2.6670   -1.4406   -0.0000 C   0  0  0  0  0  0  0  0  0  0  0  0
   -2.6670    3.0480   -0.0000 C   0  0  0  0  0  0  0  0  0  0  0  0
   -5.2863    0.1310   -0.0000 N   0  0  0  0  0  0  0  0  0  0  0  0
   -3.9886    2.3812   -0.0000 C   0  0  0  0  0  0  0  0  0  0  0  0
   -3.9886   -2.1669   -0.0000 C   0  0  0  0  0  0  0  0  0  0  0  0
   -1.3930   -2.1669   -0.0000 C   0  0  0  0  0  0  0  0  0  0  0  0
   -6.6079    0.8930   -0.0000 C   0  0  0  0  0  0  0  0  0  0  0  0
   -5.3101    3.1432   -0.0000 C   0  0  0  0  0  0  0  0  0  0  0  0
   -4.0124   -3.6433   -0.0000 C   0  0  0  0  0  0  0  0  0  0  0  0
   -1.4168   -3.6433   -0.0000 C   0  0  0  0  0  0  0  0  0  0  0  0
   -6.6317    2.4169   -0.0000 N   0  0  0  0  0  0  0  0  0  0  0  0
   -7.9295    0.1667   -0.0000 N   0  0  0  0  0  0  0  0  0  0  0  0
   -2.7384   -4.3696   -0.0000 C   0  0  0  0  0  0  0  0  0  0  0  0
   -7.9533   -1.3097   -0.0000 C   0  0  0  0  0  0  0  0  0  0  0  0
   -9.2749   -2.0360   -0.0000 C   0  0  0  0  0  0  0  0  0  0  0  0
   -6.6793   -2.0360   -0.0000 C   0  0  0  0  0  0  0  0  0  0  0  0
   -9.2987   -3.5123   -0.0000 C   0  0  0  0  0  0  0  0  0  0  0  0
   -6.7032   -3.5123   -0.0000 C   0  0  0  0  0  0  0  0  0  0  0  0
   -8.0247   -4.2386   -0.0000 C   0  0  0  0  0  0  0  0  0  0  0  0
  1  2  2  0
  2  3  1  0
  2  4  1  0
  3  5  1  0
  3  6  1  0
  4  7  2  0
  5  8  2  0
  5  9  1  0
  6 10  1  0
  6 11  1  0
  8 12  1  0
  9 13  2  0
 10 14  1  0
 11 15  1  0
 12 16  2  0
 12 17  1  0
 14 18  1  0
 17 19  1  0
 19 20  2  0
 19 21  1  0
 20 22  1  0
 21 23  2  0
 22 24  2  0
  7  9  1  0
 13 16  1  0
 15 18  1  0
 23 24  1  0
M  END
>  <Target>  (13) 
Cyclin-Dependent Kinase 4 (CDK4))

>  <IC50 (nM)>  (13) 
47.0

>  <pIC50>  (13) 
7.3279

$$$$
14.0
     RDKit          2D

 27 30  0  0  0  0  0  0  0  0999 V2000
    0.0000   -0.0000   -0.0000 O   0  0  0  0  0  0  0  0  0  0  0  0
   -1.3073    0.7537   -0.0000 C   0  0  0  0  0  0  0  0  0  0  0  0
   -2.6145    0.0353   -0.0000 N   0  0  0  0  0  0  0  0  0  0  0  0
   -1.3308    2.2612   -0.0000 C   0  0  0  0  0  0  0  0  0  0  0  0
   -3.9218    0.8479   -0.0000 C   0  0  0  0  0  0  0  0  0  0  0  0
   -2.6381   -1.4250   -0.0000 C   0  0  0  0  0  0  0  0  0  0  0  0
   -2.6381    3.0149   -0.0000 C   0  0  0  0  0  0  0  0  0  0  0  0
   -5.2290    0.1295   -0.0000 N   0  0  0  0  0  0  0  0  0  0  0  0
   -3.9453    2.3554   -0.0000 C   0  0  0  0  0  0  0  0  0  0  0  0
   -1.3779   -2.1434   -0.0000 C   0  0  0  0  0  0  0  0  0  0  0  0
   -6.5363    0.8833   -0.0000 C   0  0  0  0  0  0  0  0  0  0  0  0
   -5.2526    3.1091   -0.0000 C   0  0  0  0  0  0  0  0  0  0  0  0
   -6.5598    2.3907   -0.0000 N   0  0  0  0  0  0  0  0  0  0  0  0
   -7.8435    0.1649   -0.0000 N   0  0  0  0  0  0  0  0  0  0  0  0
   -9.1508    0.9186   -0.0000 C   0  0  0  0  0  0  0  0  0  0  0  0
  -10.4580    0.2002   -0.0000 C   0  0  0  0  0  0  0  0  0  0  0  0
   -9.1743    2.4261   -0.0000 C   0  0  0  0  0  0  0  0  0  0  0  0
  -11.7653    0.9539   -0.0000 C   0  0  0  0  0  0  0  0  0  0  0  0
  -10.4816    3.1798   -0.0000 C   0  0  0  0  0  0  0  0  0  0  0  0
  -11.7888    2.4614   -0.0000 C   0  0  0  0  0  0  0  0  0  0  0  0
  -13.0961    3.2151   -0.0000 N   0  0  0  0  0  0  0  0  0  0  0  0
  -13.1196    4.7226   -0.0000 C   0  0  0  0  0  0  0  0  0  0  0  0
  -14.4033    2.4967   -0.0000 C   0  0  0  0  0  0  0  0  0  0  0  0
  -14.4269    5.4763   -0.0000 C   0  0  0  0  0  0  0  0  0  0  0  0
  -15.7106    3.2505   -0.0000 C   0  0  0  0  0  0  0  0  0  0  0  0
  -15.7341    4.7579   -0.0000 N   0  0  0  0  0  0  0  0  0  0  0  0
  -17.0414    5.5117   -0.0000 C   0  0  0  0  0  0  0  0  0  0  0  0
  1  2  2  0
  2  3  1  0
  2  4  1  0
  3  5  1  0
  3  6  1  0
  4  7  2  0
  5  8  2  0
  5  9  1  0
  6 10  1  0
  8 11  1  0
  9 12  2  0
 11 13  2  0
 11 14  1  0
 14 15  1  0
 15 16  2  0
 15 17  1  0
 16 18  1  0
 17 19  2  0
 18 20  2  0
 20 21  1  0
 21 22  1  0
 21 23  1  0
 22 24  1  0
 23 25  1  0
 24 26  1  0
 26 27  1  0
  7  9  1  0
 12 13  1  0
 19 20  1  0
 25 26  1  0
M  END
>  <Target>  (14) 
Cyclin-Dependent Kinase 4 (CDK4))

>  <IC50 (nM)>  (14) 
85.0

>  <pIC50>  (14) 
7.0706

$$$$
15.0
     RDKit          2D

 28 32  0  0  0  0  0  0  0  0999 V2000
    0.0000   -0.0000   -0.0000 O   0  0  0  0  0  0  0  0  0  0  0  0
   -1.3237    0.7632   -0.0000 C   0  0  0  0  0  0  0  0  0  0  0  0
   -2.6475    0.0358   -0.0000 N   0  0  0  0  0  0  0  0  0  0  0  0
   -1.3476    2.2897   -0.0000 C   0  0  0  0  0  0  0  0  0  0  0  0
   -3.9712    0.8586   -0.0000 C   0  0  0  0  0  0  0  0  0  0  0  0
   -2.6713   -1.4430   -0.0000 C   0  0  0  0  0  0  0  0  0  0  0  0
   -2.6713    3.0529   -0.0000 C   0  0  0  0  0  0  0  0  0  0  0  0
   -5.2949    0.1312   -0.0000 N   0  0  0  0  0  0  0  0  0  0  0  0
   -3.9950    2.3851   -0.0000 C   0  0  0  0  0  0  0  0  0  0  0  0
   -3.4345   -2.7190   -0.0000 C   0  0  0  0  0  0  0  0  0  0  0  0
   -1.9319   -2.7190   -0.0000 C   0  0  0  0  0  0  0  0  0  0  0  0
   -6.6187    0.9063   -0.0000 C   0  0  0  0  0  0  0  0  0  0  0  0
   -5.3188    3.1483   -0.0000 C   0  0  0  0  0  0  0  0  0  0  0  0
   -6.6425    2.4328   -0.0000 N   0  0  0  0  0  0  0  0  0  0  0  0
   -7.9424    0.1789   -0.0000 N   0  0  0  0  0  0  0  0  0  0  0  0
   -7.9662   -1.2999   -0.0000 C   0  0  0  0  0  0  0  0  0  0  0  0
   -9.2900   -2.0273   -0.0000 C   0  0  0  0  0  0  0  0  0  0  0  0
   -6.6902   -2.0273   -0.0000 C   0  0  0  0  0  0  0  0  0  0  0  0
   -9.3138   -3.5061   -0.0000 C   0  0  0  0  0  0  0  0  0  0  0  0
   -6.7141   -3.5061   -0.0000 C   0  0  0  0  0  0  0  0  0  0  0  0
   -8.0378   -4.2455   -0.0000 C   0  0  0  0  0  0  0  0  0  0  0  0
   -8.0616   -5.7242   -0.0000 N   0  0  0  0  0  0  0  0  0  0  0  0
   -6.7856   -6.4517   -0.0000 C   0  0  0  0  0  0  0  0  0  0  0  0
   -9.3854   -6.4517   -0.0000 C   0  0  0  0  0  0  0  0  0  0  0  0
   -6.8095   -7.9305   -0.0000 C   0  0  0  0  0  0  0  0  0  0  0  0
   -9.4092   -7.9305   -0.0000 C   0  0  0  0  0  0  0  0  0  0  0  0
   -8.1332   -8.6579   -0.0000 N   0  0  0  0  0  0  0  0  0  0  0  0
   -8.1570  -10.1367   -0.0000 C   0  0  0  0  0  0  0  0  0  0  0  0
  1  2  2  0
  2  3  1  0
  2  4  1  0
  3  5  1  0
  3  6  1  0
  4  7  2  0
  5  8  2  0
  5  9  1  0
  6 10  1  0
  6 11  1  0
  8 12  1  0
  9 13  2  0
 12 14  2  0
 12 15  1  0
 15 16  1  0
 16 17  2  0
 16 18  1  0
 17 19  1  0
 18 20  2  0
 19 21  2  0
 21 22  1  0
 22 23  1  0
 22 24  1  0
 23 25  1  0
 24 26  1  0
 25 27  1  0
 27 28  1  0
  7  9  1  0
 10 11  1  0
 13 14  1  0
 20 21  1  0
 26 27  1  0
M  END
>  <Target>  (15) 
Cyclin-Dependent Kinase 4 (CDK4))

>  <IC50 (nM)>  (15) 
140.0

>  <pIC50>  (15) 
6.8539

$$$$
16.0
     RDKit          2D

 21 23  0  0  0  0  0  0  0  0999 V2000
    0.0000   -0.0000   -0.0000 O   0  0  0  0  0  0  0  0  0  0  0  0
   -1.3188    0.7604   -0.0000 C   0  0  0  0  0  0  0  0  0  0  0  0
   -2.6376    0.0356   -0.0000 N   0  0  0  0  0  0  0  0  0  0  0  0
   -1.3426    2.2812   -0.0000 C   0  0  0  0  0  0  0  0  0  0  0  0
   -3.9564    0.8554   -0.0000 C   0  0  0  0  0  0  0  0  0  0  0  0
   -2.6614   -1.4376   -0.0000 C   0  0  0  0  0  0  0  0  0  0  0  0
   -2.6614    3.0416   -0.0000 C   0  0  0  0  0  0  0  0  0  0  0  0
   -5.2752    0.1307   -0.0000 N   0  0  0  0  0  0  0  0  0  0  0  0
   -3.9802    2.3762   -0.0000 C   0  0  0  0  0  0  0  0  0  0  0  0
   -1.3901   -2.1624   -0.0000 C   0  0  0  0  0  0  0  0  0  0  0  0
   -3.9802   -2.1624   -0.0000 C   0  0  0  0  0  0  0  0  0  0  0  0
   -6.5941    0.8911   -0.0000 C   0  0  0  0  0  0  0  0  0  0  0  0
   -5.2990    3.1366   -0.0000 C   0  0  0  0  0  0  0  0  0  0  0  0
   -6.6178    2.4119   -0.0000 N   0  0  0  0  0  0  0  0  0  0  0  0
   -7.9129    0.1663   -0.0000 N   0  0  0  0  0  0  0  0  0  0  0  0
   -7.9366   -1.3069   -0.0000 C   0  0  0  0  0  0  0  0  0  0  0  0
   -9.2554   -2.0317   -0.0000 C   0  0  0  0  0  0  0  0  0  0  0  0
   -6.6653   -2.0317   -0.0000 C   0  0  0  0  0  0  0  0  0  0  0  0
   -9.2792   -3.5050   -0.0000 C   0  0  0  0  0  0  0  0  0  0  0  0
   -6.6891   -3.5050   -0.0000 C   0  0  0  0  0  0  0  0  0  0  0  0
   -8.0079   -4.2297   -0.0000 C   0  0  0  0  0  0  0  0  0  0  0  0
  1  2  2  0
  2  3  1  0
  2  4  1  0
  3  5  1  0
  3  6  1  0
  4  7  2  0
  5  8  2  0
  5  9  1  0
  6 10  1  0
  6 11  1  0
  8 12  1  0
  9 13  2  0
 12 14  2  0
 12 15  1  0
 15 16  1  0
 16 17  2  0
 16 18  1  0
 17 19  1  0
 18 20  2  0
 19 21  2  0
  7  9  1  0
 13 14  1  0
 20 21  1  0
M  END
>  <Target>  (16) 
Cyclin-Dependent Kinase 4 (CDK4))

>  <IC50 (nM)>  (16) 
145.0

>  <pIC50>  (16) 
6.8386

$$$$
17.0
     RDKit          2D

 23 25  0  0  0  0  0  0  0  0999 V2000
    0.0000   -0.0000   -0.0000 O   0  0  0  0  0  0  0  0  0  0  0  0
   -1.3206    0.7614   -0.0000 C   0  0  0  0  0  0  0  0  0  0  0  0
   -2.6412    0.0357   -0.0000 N   0  0  0  0  0  0  0  0  0  0  0  0
   -1.3444    2.2843   -0.0000 C   0  0  0  0  0  0  0  0  0  0  0  0
   -3.9618    0.8566   -0.0000 C   0  0  0  0  0  0  0  0  0  0  0  0
   -2.6650   -1.4396   -0.0000 C   0  0  0  0  0  0  0  0  0  0  0  0
   -2.6650    3.0457   -0.0000 C   0  0  0  0  0  0  0  0  0  0  0  0
   -5.2825    0.1309   -0.0000 N   0  0  0  0  0  0  0  0  0  0  0  0
   -3.9856    2.3795   -0.0000 C   0  0  0  0  0  0  0  0  0  0  0  0
   -1.3920   -2.1653   -0.0000 C   0  0  0  0  0  0  0  0  0  0  0  0
   -6.6031    0.9042   -0.0000 C   0  0  0  0  0  0  0  0  0  0  0  0
   -5.3063    3.1528   -0.0000 C   0  0  0  0  0  0  0  0  0  0  0  0
   -1.4158   -3.6406   -0.0000 C   0  0  0  0  0  0  0  0  0  0  0  0
   -6.6269    2.4271   -0.0000 N   0  0  0  0  0  0  0  0  0  0  0  0
   -7.9237    0.1785   -0.0000 N   0  0  0  0  0  0  0  0  0  0  0  0
   -0.1428   -4.3664   -0.0000 C   0  0  0  0  0  0  0  0  0  0  0  0
   -2.7364   -4.3664   -0.0000 C   0  0  0  0  0  0  0  0  0  0  0  0
   -7.9475   -1.2968   -0.0000 C   0  0  0  0  0  0  0  0  0  0  0  0
   -9.2681   -2.0226   -0.0000 C   0  0  0  0  0  0  0  0  0  0  0  0
   -6.6745   -2.0226   -0.0000 C   0  0  0  0  0  0  0  0  0  0  0  0
   -9.2919   -3.4978   -0.0000 C   0  0  0  0  0  0  0  0  0  0  0  0
   -6.6983   -3.4978   -0.0000 C   0  0  0  0  0  0  0  0  0  0  0  0
   -8.0189   -4.2236   -0.0000 C   0  0  0  0  0  0  0  0  0  0  0  0
  1  2  2  0
  2  3  1  0
  2  4  1  0
  3  5  1  0
  3  6  1  0
  4  7  2  0
  5  8  2  0
  5  9  1  0
  6 10  1  0
  8 11  1  0
  9 12  2  0
 10 13  1  0
 11 14  2  0
 11 15  1  0
 13 16  1  0
 13 17  1  0
 15 18  1  0
 18 19  2  0
 18 20  1  0
 19 21  1  0
 20 22  2  0
 21 23  2  0
  7  9  1  0
 12 14  1  0
 22 23  1  0
M  END
>  <Target>  (17) 
Cyclin-Dependent Kinase 4 (CDK4))

>  <IC50 (nM)>  (17) 
159.0

>  <pIC50>  (17) 
6.7986

$$$$
18.0
     RDKit          2D

 28 30  0  0  0  0  0  0  0  0999 V2000
    0.0000   -0.0000   -0.0000 O   0  0  0  0  0  0  0  0  0  0  0  0
   -1.3091    0.7548   -0.0000 C   0  0  0  0  0  0  0  0  0  0  0  0
   -2.6182    0.0354   -0.0000 N   0  0  0  0  0  0  0  0  0  0  0  0
   -1.3327    2.2644   -0.0000 C   0  0  0  0  0  0  0  0  0  0  0  0
   -3.9273    0.8491   -0.0000 C   0  0  0  0  0  0  0  0  0  0  0  0
   -2.6418   -1.4270   -0.0000 C   0  0  0  0  0  0  0  0  0  0  0  0
   -2.6418    3.0192   -0.0000 C   0  0  0  0  0  0  0  0  0  0  0  0
   -5.2364    0.1297   -0.0000 N   0  0  0  0  0  0  0  0  0  0  0  0
   -3.9509    2.3587   -0.0000 C   0  0  0  0  0  0  0  0  0  0  0  0
   -1.3799   -2.1464   -0.0000 C   0  0  0  0  0  0  0  0  0  0  0  0
   -6.5454    0.8845   -0.0000 C   0  0  0  0  0  0  0  0  0  0  0  0
   -5.2599    3.1135   -0.0000 C   0  0  0  0  0  0  0  0  0  0  0  0
   -6.5690    2.3941   -0.0000 N   0  0  0  0  0  0  0  0  0  0  0  0
   -7.8545    0.1651   -0.0000 N   0  0  0  0  0  0  0  0  0  0  0  0
   -9.1636    0.9199   -0.0000 C   0  0  0  0  0  0  0  0  0  0  0  0
  -10.4727    0.2005   -0.0000 C   0  0  0  0  0  0  0  0  0  0  0  0
   -9.1872    2.4295   -0.0000 C   0  0  0  0  0  0  0  0  0  0  0  0
  -11.7818    0.9553   -0.0000 C   0  0  0  0  0  0  0  0  0  0  0  0
  -10.4963    3.1961   -0.0000 C   0  0  0  0  0  0  0  0  0  0  0  0
  -11.8054    2.4649   -0.0000 C   0  0  0  0  0  0  0  0  0  0  0  0
  -13.1145    3.2197   -0.0000 O   0  0  0  0  0  0  0  0  0  0  0  0
  -14.4236    2.5002   -0.0000 C   0  0  0  0  0  0  0  0  0  0  0  0
  -15.7327    3.2550   -0.0000 C   0  0  0  0  0  0  0  0  0  0  0  0
  -17.0417    2.5356   -0.0000 N   0  0  0  0  0  0  0  0  0  0  0  0
  -18.3508    3.2904   -0.0000 C   0  0  0  0  0  0  0  0  0  0  0  0
  -17.0653    1.0732   -0.0000 C   0  0  0  0  0  0  0  0  0  0  0  0
  -19.6599    2.5592   -0.0000 C   0  0  0  0  0  0  0  0  0  0  0  0
  -18.3744    0.3538   -0.0000 C   0  0  0  0  0  0  0  0  0  0  0  0
  1  2  2  0
  2  3  1  0
  2  4  1  0
  3  5  1  0
  3  6  1  0
  4  7  2  0
  5  8  2  0
  5  9  1  0
  6 10  1  0
  8 11  1  0
  9 12  2  0
 11 13  2  0
 11 14  1  0
 14 15  1  0
 15 16  2  0
 15 17  1  0
 16 18  1  0
 17 19  2  0
 18 20  2  0
 20 21  1  0
 21 22  1  0
 22 23  1  0
 23 24  1  0
 24 25  1  0
 24 26  1  0
 25 27  1  0
 26 28  1  0
  7  9  1  0
 12 13  1  0
 19 20  1  0
M  END
>  <Target>  (18) 
Cyclin-Dependent Kinase 4 (CDK4))

>  <IC50 (nM)>  (18) 
160.0

>  <pIC50>  (18) 
6.7959

$$$$
19.0
     RDKit          2D

 31 35  0  0  0  0  0  0  0  0999 V2000
    0.0000   -0.0000   -0.0000 O   0  0  0  0  0  0  0  0  0  0  0  0
   -1.3247    0.7638   -0.0000 C   0  0  0  0  0  0  0  0  0  0  0  0
   -2.6493    0.0358   -0.0000 N   0  0  0  0  0  0  0  0  0  0  0  0
   -1.3485    2.2913   -0.0000 C   0  0  0  0  0  0  0  0  0  0  0  0
   -3.9740    0.8592   -0.0000 C   0  0  0  0  0  0  0  0  0  0  0  0
   -2.6732   -1.4440   -0.0000 C   0  0  0  0  0  0  0  0  0  0  0  0
   -2.6732    3.0670   -0.0000 C   0  0  0  0  0  0  0  0  0  0  0  0
   -5.2986    0.1313   -0.0000 N   0  0  0  0  0  0  0  0  0  0  0  0
   -3.9978    2.3868   -0.0000 C   0  0  0  0  0  0  0  0  0  0  0  0
   -3.9978   -2.1720   -0.0000 C   0  0  0  0  0  0  0  0  0  0  0  0
   -1.3963   -2.1720   -0.0000 C   0  0  0  0  0  0  0  0  0  0  0  0
   -6.6233    0.8950   -0.0000 C   0  0  0  0  0  0  0  0  0  0  0  0
   -5.3225    3.1505   -0.0000 C   0  0  0  0  0  0  0  0  0  0  0  0
   -4.0217   -3.6518   -0.0000 C   0  0  0  0  0  0  0  0  0  0  0  0
   -1.4201   -3.6518   -0.0000 C   0  0  0  0  0  0  0  0  0  0  0  0
   -6.6471    2.4226   -0.0000 N   0  0  0  0  0  0  0  0  0  0  0  0
   -7.9479    0.1671   -0.0000 N   0  0  0  0  0  0  0  0  0  0  0  0
   -2.7448   -4.3797   -0.0000 C   0  0  0  0  0  0  0  0  0  0  0  0
   -7.9718   -1.3127   -0.0000 C   0  0  0  0  0  0  0  0  0  0  0  0
   -9.2965   -2.0407   -0.0000 C   0  0  0  0  0  0  0  0  0  0  0  0
   -6.6949   -2.0407   -0.0000 C   0  0  0  0  0  0  0  0  0  0  0  0
   -9.3203   -3.5205   -0.0000 C   0  0  0  0  0  0  0  0  0  0  0  0
   -6.7187   -3.5205   -0.0000 C   0  0  0  0  0  0  0  0  0  0  0  0
   -8.0434   -4.2604   -0.0000 C   0  0  0  0  0  0  0  0  0  0  0  0
   -8.0673   -5.7402   -0.0000 N   0  0  0  0  0  0  0  0  0  0  0  0
   -6.7904   -6.4681   -0.0000 C   0  0  0  0  0  0  0  0  0  0  0  0
   -9.3919   -6.4681   -0.0000 C   0  0  0  0  0  0  0  0  0  0  0  0
   -6.8142   -7.9479   -0.0000 C   0  0  0  0  0  0  0  0  0  0  0  0
   -9.4158   -7.9479   -0.0000 C   0  0  0  0  0  0  0  0  0  0  0  0
   -8.1389   -8.6759   -0.0000 N   0  0  0  0  0  0  0  0  0  0  0  0
   -8.1627  -10.1557   -0.0000 C   0  0  0  0  0  0  0  0  0  0  0  0
  1  2  2  0
  2  3  1  0
  2  4  1  0
  3  5  1  0
  3  6  1  0
  4  7  2  0
  5  8  2  0
  5  9  1  0
  6 10  2  0
  6 11  1  0
  8 12  1  0
  9 13  2  0
 10 14  1  0
 11 15  2  0
 12 16  2  0
 12 17  1  0
 14 18  2  0
 17 19  1  0
 19 20  2  0
 19 21  1  0
 20 22  1  0
 21 23  2  0
 22 24  2  0
 24 25  1  0
 25 26  1  0
 25 27  1  0
 26 28  1  0
 27 29  1  0
 28 30  1  0
 30 31  1  0
  7  9  1  0
 13 16  1  0
 15 18  1  0
 23 24  1  0
 29 30  1  0
M  END
>  <Target>  (19) 
Cyclin-Dependent Kinase 4 (CDK4))

>  <IC50 (nM)>  (19) 
175.0

>  <pIC50>  (19) 
6.757

$$$$
20.0
     RDKit          2D

 25 28  0  0  0  0  0  0  0  0999 V2000
    0.0000   -0.0000   -0.0000 O   0  0  0  0  0  0  0  0  0  0  0  0
   -1.3218    0.7741   -0.0000 C   0  0  0  0  0  0  0  0  0  0  0  0
   -2.6437    0.0476   -0.0000 N   0  0  0  0  0  0  0  0  0  0  0  0
   -1.3457    2.2983   -0.0000 C   0  0  0  0  0  0  0  0  0  0  0  0
   -3.9655    0.8693   -0.0000 C   0  0  0  0  0  0  0  0  0  0  0  0
   -2.6675   -1.4290   -0.0000 C   0  0  0  0  0  0  0  0  0  0  0  0
   -2.6675    3.0605   -0.0000 C   0  0  0  0  0  0  0  0  0  0  0  0
   -5.2874    0.1429   -0.0000 N   0  0  0  0  0  0  0  0  0  0  0  0
   -3.9893    2.3936   -0.0000 C   0  0  0  0  0  0  0  0  0  0  0  0
   -4.0370   -2.0602   -0.0000 C   0  0  0  0  0  0  0  0  0  0  0  0
   -1.3457   -2.0602   -0.0000 C   0  0  0  0  0  0  0  0  0  0  0  0
   -6.6092    0.9170   -0.0000 C   0  0  0  0  0  0  0  0  0  0  0  0
   -5.3112    3.1677   -0.0000 C   0  0  0  0  0  0  0  0  0  0  0  0
   -4.3942   -3.5011   -0.0000 C   0  0  0  0  0  0  0  0  0  0  0  0
   -1.0360   -3.5011   -0.0000 C   0  0  0  0  0  0  0  0  0  0  0  0
   -6.6330    2.4412   -0.0000 N   0  0  0  0  0  0  0  0  0  0  0  0
   -7.9311    0.1905   -0.0000 N   0  0  0  0  0  0  0  0  0  0  0  0
   -3.4892   -4.6443   -0.0000 C   0  0  0  0  0  0  0  0  0  0  0  0
   -1.9887   -4.6443   -0.0000 C   0  0  0  0  0  0  0  0  0  0  0  0
   -7.9549   -1.2861   -0.0000 C   0  0  0  0  0  0  0  0  0  0  0  0
   -9.2767   -2.0125   -0.0000 C   0  0  0  0  0  0  0  0  0  0  0  0
   -6.6807   -2.0125   -0.0000 C   0  0  0  0  0  0  0  0  0  0  0  0
   -9.3005   -3.4892   -0.0000 C   0  0  0  0  0  0  0  0  0  0  0  0
   -6.7045   -3.4892   -0.0000 C   0  0  0  0  0  0  0  0  0  0  0  0
   -8.0263   -4.2156   -0.0000 C   0  0  0  0  0  0  0  0  0  0  0  0
  1  2  2  0
  2  3  1  0
  2  4  1  0
  3  5  1  0
  3  6  1  0
  4  7  2  0
  5  8  2  0
  5  9  1  0
  6 10  1  0
  6 11  1  0
  8 12  1  0
  9 13  2  0
 10 14  1  0
 11 15  1  0
 12 16  2  0
 12 17  1  0
 14 18  1  0
 15 19  1  0
 17 20  1  0
 20 21  2  0
 20 22  1  0
 21 23  1  0
 22 24  2  0
 23 25  2  0
  7  9  1  0
 13 16  1  0
 18 19  1  0
 24 25  1  0
M  END
>  <Target>  (20) 
Cyclin-Dependent Kinase 4 (CDK4))

>  <IC50 (nM)>  (20) 
182.0

>  <pIC50>  (20) 
6.7399

$$$$
21.0
     RDKit          2D

 22 24  0  0  0  0  0  0  0  0999 V2000
    0.0000   -0.0000   -0.0000 O   0  0  0  0  0  0  0  0  0  0  0  0
   -1.3191    0.7725   -0.0000 C   0  0  0  0  0  0  0  0  0  0  0  0
   -2.6383    0.0475   -0.0000 N   0  0  0  0  0  0  0  0  0  0  0  0
   -1.3429    2.2936   -0.0000 C   0  0  0  0  0  0  0  0  0  0  0  0
   -3.9574    0.8675   -0.0000 C   0  0  0  0  0  0  0  0  0  0  0  0
   -2.6620   -1.4261   -0.0000 C   0  0  0  0  0  0  0  0  0  0  0  0
   -2.6620    3.0542   -0.0000 C   0  0  0  0  0  0  0  0  0  0  0  0
   -5.2765    0.1426   -0.0000 N   0  0  0  0  0  0  0  0  0  0  0  0
   -3.9812    2.3887   -0.0000 C   0  0  0  0  0  0  0  0  0  0  0  0
   -1.3904   -2.1510   -0.0000 C   0  0  0  0  0  0  0  0  0  0  0  0
   -3.9812   -2.1510   -0.0000 C   0  0  0  0  0  0  0  0  0  0  0  0
   -6.5957    0.9032   -0.0000 C   0  0  0  0  0  0  0  0  0  0  0  0
   -5.3003    3.1612   -0.0000 C   0  0  0  0  0  0  0  0  0  0  0  0
   -1.4142   -3.6247   -0.0000 C   0  0  0  0  0  0  0  0  0  0  0  0
   -6.6194    2.4244   -0.0000 N   0  0  0  0  0  0  0  0  0  0  0  0
   -7.9148    0.1783   -0.0000 N   0  0  0  0  0  0  0  0  0  0  0  0
   -7.9386   -1.2954   -0.0000 C   0  0  0  0  0  0  0  0  0  0  0  0
   -9.2577   -2.0203   -0.0000 C   0  0  0  0  0  0  0  0  0  0  0  0
   -6.6670   -2.0203   -0.0000 C   0  0  0  0  0  0  0  0  0  0  0  0
   -9.2815   -3.4939   -0.0000 C   0  0  0  0  0  0  0  0  0  0  0  0
   -6.6908   -3.4939   -0.0000 C   0  0  0  0  0  0  0  0  0  0  0  0
   -8.0099   -4.2189   -0.0000 C   0  0  0  0  0  0  0  0  0  0  0  0
  1  2  2  0
  2  3  1  0
  2  4  1  0
  3  5  1  0
  6  3  1  0
  4  7  2  0
  5  8  2  0
  5  9  1  0
  6 10  1  0
  6 11  1  6
  8 12  1  0
  9 13  2  0
 10 14  1  0
 12 15  2  0
 12 16  1  0
 16 17  1  0
 17 18  2  0
 17 19  1  0
 18 20  1  0
 19 21  2  0
 20 22  2  0
  7  9  1  0
 13 15  1  0
 21 22  1  0
M  END
>  <Target>  (21) 
Cyclin-Dependent Kinase 4 (CDK4))

>  <IC50 (nM)>  (21) 
190.0

>  <pIC50>  (21) 
6.7212

$$$$
22.0
     RDKit          2D

 23 26  0  0  0  0  0  0  0  0999 V2000
    0.0000   -0.0000   -0.0000 O   0  0  0  0  0  0  0  0  0  0  0  0
   -1.3205    0.7614   -0.0000 C   0  0  0  0  0  0  0  0  0  0  0  0
   -2.6410    0.0357   -0.0000 N   0  0  0  0  0  0  0  0  0  0  0  0
   -1.3443    2.2841   -0.0000 C   0  0  0  0  0  0  0  0  0  0  0  0
   -3.9616    0.8566   -0.0000 C   0  0  0  0  0  0  0  0  0  0  0  0
   -2.6648   -1.4395   -0.0000 C   0  0  0  0  0  0  0  0  0  0  0  0
   -2.6648    3.0455   -0.0000 C   0  0  0  0  0  0  0  0  0  0  0  0
   -5.2821    0.1309   -0.0000 N   0  0  0  0  0  0  0  0  0  0  0  0
   -3.9854    2.3793   -0.0000 C   0  0  0  0  0  0  0  0  0  0  0  0
   -3.9021   -2.2960   -0.0000 C   0  0  0  0  0  0  0  0  0  0  0  0
   -1.4752   -2.2960   -0.0000 C   0  0  0  0  0  0  0  0  0  0  0  0
   -6.6026    0.9041   -0.0000 C   0  0  0  0  0  0  0  0  0  0  0  0
   -5.3059    3.1407   -0.0000 C   0  0  0  0  0  0  0  0  0  0  0  0
   -3.4619   -3.6998   -0.0000 C   0  0  0  0  0  0  0  0  0  0  0  0
   -1.9629   -3.6998   -0.0000 C   0  0  0  0  0  0  0  0  0  0  0  0
   -6.6264    2.4269   -0.0000 N   0  0  0  0  0  0  0  0  0  0  0  0
   -7.9231    0.1784   -0.0000 N   0  0  0  0  0  0  0  0  0  0  0  0
   -7.9469   -1.2967   -0.0000 C   0  0  0  0  0  0  0  0  0  0  0  0
   -9.2674   -2.0224   -0.0000 C   0  0  0  0  0  0  0  0  0  0  0  0
   -6.6740   -2.0224   -0.0000 C   0  0  0  0  0  0  0  0  0  0  0  0
   -9.2912   -3.4976   -0.0000 C   0  0  0  0  0  0  0  0  0  0  0  0
   -6.6978   -3.4976   -0.0000 C   0  0  0  0  0  0  0  0  0  0  0  0
   -8.0183   -4.2233   -0.0000 C   0  0  0  0  0  0  0  0  0  0  0  0
  1  2  2  0
  2  3  1  0
  2  4  1  0
  3  5  1  0
  3  6  1  0
  4  7  2  0
  5  8  2  0
  5  9  1  0
  6 10  1  0
  6 11  1  0
  8 12  1  0
  9 13  2  0
 10 14  1  0
 11 15  1  0
 12 16  2  0
 12 17  1  0
 17 18  1  0
 18 19  2  0
 18 20  1  0
 19 21  1  0
 20 22  2  0
 21 23  2  0
  7  9  1  0
 13 16  1  0
 14 15  1  0
 22 23  1  0
M  END
>  <Target>  (22) 
Cyclin-Dependent Kinase 4 (CDK4))

>  <IC50 (nM)>  (22) 
210.0

>  <pIC50>  (22) 
6.6778

$$$$
23.0
     RDKit          2D

 22 24  0  0  0  0  0  0  0  0999 V2000
    0.0000   -0.0000   -0.0000 O   0  0  0  0  0  0  0  0  0  0  0  0
   -1.3194    0.7726   -0.0000 C   0  0  0  0  0  0  0  0  0  0  0  0
   -2.6389    0.0475   -0.0000 N   0  0  0  0  0  0  0  0  0  0  0  0
   -1.3432    2.2942   -0.0000 C   0  0  0  0  0  0  0  0  0  0  0  0
   -3.9583    0.8677   -0.0000 C   0  0  0  0  0  0  0  0  0  0  0  0
   -2.6626   -1.4264   -0.0000 C   0  0  0  0  0  0  0  0  0  0  0  0
   -2.6626    3.0668   -0.0000 C   0  0  0  0  0  0  0  0  0  0  0  0
   -5.2777    0.1426   -0.0000 N   0  0  0  0  0  0  0  0  0  0  0  0
   -3.9821    2.3892   -0.0000 C   0  0  0  0  0  0  0  0  0  0  0  0
   -1.3908   -2.1515   -0.0000 C   0  0  0  0  0  0  0  0  0  0  0  0
   -6.5972    0.9153   -0.0000 C   0  0  0  0  0  0  0  0  0  0  0  0
   -5.3015    3.1619   -0.0000 C   0  0  0  0  0  0  0  0  0  0  0  0
   -1.4145   -3.6255   -0.0000 C   0  0  0  0  0  0  0  0  0  0  0  0
    0.0357   -1.7355   -0.0000 C   0  0  0  0  0  0  0  0  0  0  0  0
   -6.6209    2.4368   -0.0000 N   0  0  0  0  0  0  0  0  0  0  0  0
   -7.9166    0.1902   -0.0000 N   0  0  0  0  0  0  0  0  0  0  0  0
   -7.9404   -1.2838   -0.0000 C   0  0  0  0  0  0  0  0  0  0  0  0
   -9.2598   -2.0089   -0.0000 C   0  0  0  0  0  0  0  0  0  0  0  0
   -6.6685   -2.0089   -0.0000 C   0  0  0  0  0  0  0  0  0  0  0  0
   -9.2836   -3.4828   -0.0000 C   0  0  0  0  0  0  0  0  0  0  0  0
   -6.6923   -3.4828   -0.0000 C   0  0  0  0  0  0  0  0  0  0  0  0
   -8.0117   -4.2079   -0.0000 C   0  0  0  0  0  0  0  0  0  0  0  0
  1  2  2  0
  2  3  1  0
  2  4  1  0
  3  5  1  0
  3  6  1  0
  4  7  2  0
  5  8  2  0
  5  9  1  0
  6 10  1  0
  8 11  1  0
  9 12  2  0
 10 13  1  0
 10 14  1  0
 11 15  2  0
 11 16  1  0
 16 17  1  0
 17 18  2  0
 17 19  1  0
 18 20  1  0
 19 21  2  0
 20 22  2  0
  7  9  1  0
 12 15  1  0
 21 22  1  0
M  END
>  <Target>  (23) 
Cyclin-Dependent Kinase 4 (CDK4))

>  <IC50 (nM)>  (23) 
297.0

>  <pIC50>  (23) 
6.5272

$$$$
24.0
     RDKit          2D

 26 29  0  0  0  0  0  0  0  0999 V2000
    0.0000   -0.0000   -0.0000 O   0  0  0  0  0  0  0  0  0  0  0  0
   -1.3075    0.7539   -0.0000 C   0  0  0  0  0  0  0  0  0  0  0  0
   -2.6150    0.0353   -0.0000 N   0  0  0  0  0  0  0  0  0  0  0  0
   -1.3311    2.2617   -0.0000 C   0  0  0  0  0  0  0  0  0  0  0  0
   -3.9226    0.8481   -0.0000 C   0  0  0  0  0  0  0  0  0  0  0  0
   -2.6386   -1.4253   -0.0000 C   0  0  0  0  0  0  0  0  0  0  0  0
   -2.6386    3.0155   -0.0000 C   0  0  0  0  0  0  0  0  0  0  0  0
   -5.2301    0.1296   -0.0000 N   0  0  0  0  0  0  0  0  0  0  0  0
   -3.9461    2.3559   -0.0000 C   0  0  0  0  0  0  0  0  0  0  0  0
   -1.3782   -2.1439   -0.0000 C   0  0  0  0  0  0  0  0  0  0  0  0
   -6.5376    0.8835   -0.0000 C   0  0  0  0  0  0  0  0  0  0  0  0
   -5.2537    3.1098   -0.0000 C   0  0  0  0  0  0  0  0  0  0  0  0
   -6.5612    2.3912   -0.0000 N   0  0  0  0  0  0  0  0  0  0  0  0
   -7.8451    0.1649   -0.0000 N   0  0  0  0  0  0  0  0  0  0  0  0
   -9.1527    0.9188   -0.0000 C   0  0  0  0  0  0  0  0  0  0  0  0
  -10.4602    0.2003   -0.0000 C   0  0  0  0  0  0  0  0  0  0  0  0
   -9.1762    2.4266   -0.0000 C   0  0  0  0  0  0  0  0  0  0  0  0
  -11.7677    0.9541   -0.0000 C   0  0  0  0  0  0  0  0  0  0  0  0
  -10.4837    3.1805   -0.0000 C   0  0  0  0  0  0  0  0  0  0  0  0
  -11.7913    2.4619   -0.0000 C   0  0  0  0  0  0  0  0  0  0  0  0
  -13.0988    3.2158   -0.0000 N   0  0  0  0  0  0  0  0  0  0  0  0
  -14.4063    2.4973   -0.0000 C   0  0  0  0  0  0  0  0  0  0  0  0
  -13.1223    4.7236   -0.0000 C   0  0  0  0  0  0  0  0  0  0  0  0
  -15.7138    3.2511   -0.0000 C   0  0  0  0  0  0  0  0  0  0  0  0
  -14.4299    5.4775   -0.0000 C   0  0  0  0  0  0  0  0  0  0  0  0
  -15.7374    4.7589   -0.0000 O   0  0  0  0  0  0  0  0  0  0  0  0
  1  2  2  0
  2  3  1  0
  2  4  1  0
  3  5  1  0
  3  6  1  0
  4  7  2  0
  5  8  2  0
  5  9  1  0
  6 10  1  0
  8 11  1  0
  9 12  2  0
 11 13  2  0
 11 14  1  0
 14 15  1  0
 15 16  2  0
 15 17  1  0
 16 18  1  0
 17 19  2  0
 18 20  2  0
 20 21  1  0
 21 22  1  0
 21 23  1  0
 22 24  1  0
 23 25  1  0
 24 26  1  0
  7  9  1  0
 12 13  1  0
 19 20  1  0
 25 26  1  0
M  END
>  <Target>  (24) 
Cyclin-Dependent Kinase 4 (CDK4))

>  <IC50 (nM)>  (24) 
300.0

>  <pIC50>  (24) 
6.5229

$$$$
25.0
     RDKit          2D

 26 29  0  0  0  0  0  0  0  0999 V2000
    0.0000   -0.0000   -0.0000 O   0  0  0  0  0  0  0  0  0  0  0  0
   -1.3075    0.7539   -0.0000 C   0  0  0  0  0  0  0  0  0  0  0  0
   -2.6150    0.0353   -0.0000 N   0  0  0  0  0  0  0  0  0  0  0  0
   -1.3311    2.2617   -0.0000 C   0  0  0  0  0  0  0  0  0  0  0  0
   -3.9226    0.8481   -0.0000 C   0  0  0  0  0  0  0  0  0  0  0  0
   -2.6386   -1.4253   -0.0000 C   0  0  0  0  0  0  0  0  0  0  0  0
   -2.6386    3.0155   -0.0000 C   0  0  0  0  0  0  0  0  0  0  0  0
   -5.2301    0.1296   -0.0000 N   0  0  0  0  0  0  0  0  0  0  0  0
   -3.9461    2.3559   -0.0000 C   0  0  0  0  0  0  0  0  0  0  0  0
   -1.3782   -2.1439   -0.0000 C   0  0  0  0  0  0  0  0  0  0  0  0
   -6.5376    0.8835   -0.0000 C   0  0  0  0  0  0  0  0  0  0  0  0
   -5.2537    3.1098   -0.0000 C   0  0  0  0  0  0  0  0  0  0  0  0
   -6.5612    2.3912   -0.0000 N   0  0  0  0  0  0  0  0  0  0  0  0
   -7.8451    0.1649   -0.0000 N   0  0  0  0  0  0  0  0  0  0  0  0
   -9.1527    0.9188   -0.0000 C   0  0  0  0  0  0  0  0  0  0  0  0
  -10.4602    0.2003   -0.0000 C   0  0  0  0  0  0  0  0  0  0  0  0
   -9.1762    2.4266   -0.0000 C   0  0  0  0  0  0  0  0  0  0  0  0
  -11.7677    0.9541   -0.0000 C   0  0  0  0  0  0  0  0  0  0  0  0
  -10.4837    3.1805   -0.0000 C   0  0  0  0  0  0  0  0  0  0  0  0
  -11.7913    2.4619   -0.0000 C   0  0  0  0  0  0  0  0  0  0  0  0
  -13.0988    3.2158   -0.0000 N   0  0  0  0  0  0  0  0  0  0  0  0
  -13.1223    4.7236   -0.0000 C   0  0  0  0  0  0  0  0  0  0  0  0
  -14.4063    2.4973   -0.0000 C   0  0  0  0  0  0  0  0  0  0  0  0
  -14.4299    5.4775   -0.0000 C   0  0  0  0  0  0  0  0  0  0  0  0
  -15.7138    3.2511   -0.0000 C   0  0  0  0  0  0  0  0  0  0  0  0
  -15.7374    4.7589   -0.0000 C   0  0  0  0  0  0  0  0  0  0  0  0
  1  2  2  0
  2  3  1  0
  2  4  1  0
  3  5  1  0
  3  6  1  0
  4  7  2  0
  5  8  2  0
  5  9  1  0
  6 10  1  0
  8 11  1  0
  9 12  2  0
 11 13  2  0
 11 14  1  0
 14 15  1  0
 15 16  2  0
 15 17  1  0
 16 18  1  0
 17 19  2  0
 18 20  2  0
 20 21  1  0
 21 22  1  0
 21 23  1  0
 22 24  1  0
 23 25  1  0
 24 26  1  0
  7  9  1  0
 12 13  1  0
 19 20  1  0
 25 26  1  0
M  END
>  <Target>  (25) 
Cyclin-Dependent Kinase 4 (CDK4))

>  <IC50 (nM)>  (25) 
300.0

>  <pIC50>  (25) 
6.5229

$$$$
26.0
     RDKit          2D

 23 25  0  0  0  0  0  0  0  0999 V2000
    0.0000   -0.0000   -0.0000 O   0  0  0  0  0  0  0  0  0  0  0  0
   -1.3063    0.7650   -0.0000 C   0  0  0  0  0  0  0  0  0  0  0  0
   -2.6127    0.0471   -0.0000 N   0  0  0  0  0  0  0  0  0  0  0  0
   -1.3299    2.2714   -0.0000 C   0  0  0  0  0  0  0  0  0  0  0  0
   -3.9190    0.8591   -0.0000 C   0  0  0  0  0  0  0  0  0  0  0  0
   -2.6362   -1.4123   -0.0000 C   0  0  0  0  0  0  0  0  0  0  0  0
   -2.6362    3.0363   -0.0000 C   0  0  0  0  0  0  0  0  0  0  0  0
   -5.2253    0.1412   -0.0000 N   0  0  0  0  0  0  0  0  0  0  0  0
   -3.9425    2.3655   -0.0000 C   0  0  0  0  0  0  0  0  0  0  0  0
   -1.3769   -2.1301   -0.0000 C   0  0  0  0  0  0  0  0  0  0  0  0
   -6.5317    0.9062   -0.0000 C   0  0  0  0  0  0  0  0  0  0  0  0
   -5.2489    3.1305   -0.0000 C   0  0  0  0  0  0  0  0  0  0  0  0
   -6.5552    2.4126   -0.0000 N   0  0  0  0  0  0  0  0  0  0  0  0
   -7.8380    0.1883   -0.0000 N   0  0  0  0  0  0  0  0  0  0  0  0
   -9.1443    0.9533   -0.0000 C   0  0  0  0  0  0  0  0  0  0  0  0
  -10.4507    0.2354   -0.0000 C   0  0  0  0  0  0  0  0  0  0  0  0
   -9.1679    2.4597   -0.0000 C   0  0  0  0  0  0  0  0  0  0  0  0
  -11.7570    1.0003   -0.0000 C   0  0  0  0  0  0  0  0  0  0  0  0
  -10.4742    3.2246   -0.0000 C   0  0  0  0  0  0  0  0  0  0  0  0
  -11.7805    2.5067   -0.0000 C   0  0  0  0  0  0  0  0  0  0  0  0
  -13.0869    3.2717   -0.0000 N   0  0  0  0  0  0  0  0  0  0  0  0
  -14.3932    2.5538   -0.0000 C   0  0  0  0  0  0  0  0  0  0  0  0
  -13.1104    4.7781   -0.0000 C   0  0  0  0  0  0  0  0  0  0  0  0
  1  2  2  0
  2  3  1  0
  2  4  1  0
  3  5  1  0
  3  6  1  0
  4  7  2  0
  5  8  2  0
  5  9  1  0
  6 10  1  0
  8 11  1  0
  9 12  2  0
 11 13  2  0
 11 14  1  0
 14 15  1  0
 15 16  2  0
 15 17  1  0
 16 18  1  0
 17 19  2  0
 18 20  2  0
 20 21  1  0
 21 22  1  0
 21 23  1  0
  7  9  1  0
 12 13  1  0
 19 20  1  0
M  END
>  <Target>  (26) 
Cyclin-Dependent Kinase 4 (CDK4))

>  <IC50 (nM)>  (26) 
330.0

>  <pIC50>  (26) 
6.4815

$$$$
27.0
     RDKit          2D

 21 23  0  0  0  0  0  0  0  0999 V2000
    0.0000   -0.0000   -0.0000 O   0  0  0  0  0  0  0  0  0  0  0  0
   -1.3198    0.7728   -0.0000 C   0  0  0  0  0  0  0  0  0  0  0  0
   -2.6395    0.0476   -0.0000 N   0  0  0  0  0  0  0  0  0  0  0  0
   -1.3436    2.2947   -0.0000 C   0  0  0  0  0  0  0  0  0  0  0  0
   -3.9593    0.8680   -0.0000 C   0  0  0  0  0  0  0  0  0  0  0  0
   -2.6633   -1.4268   -0.0000 C   0  0  0  0  0  0  0  0  0  0  0  0
   -2.6633    3.0557   -0.0000 C   0  0  0  0  0  0  0  0  0  0  0  0
   -5.2791    0.1427   -0.0000 N   0  0  0  0  0  0  0  0  0  0  0  0
   -3.9831    2.3899   -0.0000 C   0  0  0  0  0  0  0  0  0  0  0  0
   -1.3911   -2.1521   -0.0000 C   0  0  0  0  0  0  0  0  0  0  0  0
   -6.5989    0.9155   -0.0000 C   0  0  0  0  0  0  0  0  0  0  0  0
   -5.3029    3.1508   -0.0000 C   0  0  0  0  0  0  0  0  0  0  0  0
   -1.4149   -3.6264   -0.0000 C   0  0  0  0  0  0  0  0  0  0  0  0
   -6.6226    2.4374   -0.0000 N   0  0  0  0  0  0  0  0  0  0  0  0
   -7.9186    0.1902   -0.0000 N   0  0  0  0  0  0  0  0  0  0  0  0
   -7.9424   -1.2841   -0.0000 C   0  0  0  0  0  0  0  0  0  0  0  0
   -9.2622   -2.0094   -0.0000 C   0  0  0  0  0  0  0  0  0  0  0  0
   -6.6702   -2.0094   -0.0000 C   0  0  0  0  0  0  0  0  0  0  0  0
   -9.2860   -3.4837   -0.0000 C   0  0  0  0  0  0  0  0  0  0  0  0
   -6.6940   -3.4837   -0.0000 C   0  0  0  0  0  0  0  0  0  0  0  0
   -8.0138   -4.2090   -0.0000 C   0  0  0  0  0  0  0  0  0  0  0  0
  1  2  2  0
  2  3  1  0
  2  4  1  0
  3  5  1  0
  3  6  1  0
  4  7  2  0
  5  8  2  0
  5  9  1  0
  6 10  1  0
  8 11  1  0
  9 12  2  0
 10 13  1  0
 11 14  2  0
 11 15  1  0
 15 16  1  0
 16 17  2  0
 16 18  1  0
 17 19  1  0
 18 20  2  0
 19 21  2  0
  7  9  1  0
 12 14  1  0
 20 21  1  0
M  END
>  <Target>  (27) 
Cyclin-Dependent Kinase 4 (CDK4))

>  <IC50 (nM)>  (27) 
553.0

>  <pIC50>  (27) 
6.2573

$$$$
28.0
     RDKit          2D

 21 23  0  0  0  0  0  0  0  0999 V2000
    0.0000   -0.0000   -0.0000 O   0  0  0  0  0  0  0  0  0  0  0  0
   -1.3082    0.7543   -0.0000 C   0  0  0  0  0  0  0  0  0  0  0  0
   -2.6164    0.0354   -0.0000 N   0  0  0  0  0  0  0  0  0  0  0  0
   -1.3318    2.2629   -0.0000 C   0  0  0  0  0  0  0  0  0  0  0  0
   -3.9247    0.8486   -0.0000 C   0  0  0  0  0  0  0  0  0  0  0  0
   -2.6400   -1.4261   -0.0000 C   0  0  0  0  0  0  0  0  0  0  0  0
   -2.6400    3.0172   -0.0000 C   0  0  0  0  0  0  0  0  0  0  0  0
   -5.2329    0.1296   -0.0000 N   0  0  0  0  0  0  0  0  0  0  0  0
   -3.9482    2.3572   -0.0000 C   0  0  0  0  0  0  0  0  0  0  0  0
   -1.3789   -2.1450   -0.0000 C   0  0  0  0  0  0  0  0  0  0  0  0
   -6.5411    0.8839   -0.0000 C   0  0  0  0  0  0  0  0  0  0  0  0
   -5.2565    3.1114   -0.0000 C   0  0  0  0  0  0  0  0  0  0  0  0
   -6.5647    2.3925   -0.0000 N   0  0  0  0  0  0  0  0  0  0  0  0
   -7.8493    0.1650   -0.0000 N   0  0  0  0  0  0  0  0  0  0  0  0
   -9.1575    0.9193   -0.0000 C   0  0  0  0  0  0  0  0  0  0  0  0
  -10.4658    0.2004   -0.0000 C   0  0  0  0  0  0  0  0  0  0  0  0
   -9.1811    2.4279   -0.0000 C   0  0  0  0  0  0  0  0  0  0  0  0
  -11.7740    0.9546   -0.0000 C   0  0  0  0  0  0  0  0  0  0  0  0
  -10.4893    3.1822   -0.0000 C   0  0  0  0  0  0  0  0  0  0  0  0
  -11.7976    2.4632   -0.0000 C   0  0  0  0  0  0  0  0  0  0  0  0
  -13.1058    3.2175   -0.0000 O   0  0  0  0  0  0  0  0  0  0  0  0
  1  2  2  0
  2  3  1  0
  2  4  1  0
  3  5  1  0
  3  6  1  0
  4  7  2  0
  5  8  2  0
  5  9  1  0
  6 10  1  0
  8 11  1  0
  9 12  2  0
 11 13  2  0
 11 14  1  0
 14 15  1  0
 15 16  2  0
 15 17  1  0
 16 18  1  0
 17 19  2  0
 18 20  2  0
 20 21  1  0
  7  9  1  0
 12 13  1  0
 19 20  1  0
M  END
>  <Target>  (28) 
Cyclin-Dependent Kinase 4 (CDK4))

>  <IC50 (nM)>  (28) 
585.0

>  <pIC50>  (28) 
6.2328

$$$$
29.0
     RDKit          2D

 22 24  0  0  0  0  0  0  0  0999 V2000
    0.0000   -0.0000   -0.0000 O   0  0  0  0  0  0  0  0  0  0  0  0
   -1.3066    0.7651   -0.0000 C   0  0  0  0  0  0  0  0  0  0  0  0
   -2.6131    0.0471   -0.0000 N   0  0  0  0  0  0  0  0  0  0  0  0
   -1.3301    2.2718   -0.0000 C   0  0  0  0  0  0  0  0  0  0  0  0
   -3.9197    0.8593   -0.0000 C   0  0  0  0  0  0  0  0  0  0  0  0
   -2.6367   -1.4125   -0.0000 C   0  0  0  0  0  0  0  0  0  0  0  0
   -2.6367    3.0369   -0.0000 C   0  0  0  0  0  0  0  0  0  0  0  0
   -5.2263    0.1413   -0.0000 N   0  0  0  0  0  0  0  0  0  0  0  0
   -3.9433    2.3660   -0.0000 C   0  0  0  0  0  0  0  0  0  0  0  0
   -1.3772   -2.1305   -0.0000 C   0  0  0  0  0  0  0  0  0  0  0  0
   -6.5329    0.9064   -0.0000 C   0  0  0  0  0  0  0  0  0  0  0  0
   -5.2498    3.1311   -0.0000 C   0  0  0  0  0  0  0  0  0  0  0  0
   -6.5564    2.4130   -0.0000 N   0  0  0  0  0  0  0  0  0  0  0  0
   -7.8394    0.1883   -0.0000 N   0  0  0  0  0  0  0  0  0  0  0  0
   -9.1460    0.9534   -0.0000 C   0  0  0  0  0  0  0  0  0  0  0  0
  -10.4526    0.2354   -0.0000 C   0  0  0  0  0  0  0  0  0  0  0  0
   -9.1695    2.4601   -0.0000 C   0  0  0  0  0  0  0  0  0  0  0  0
  -11.7591    1.0005   -0.0000 C   0  0  0  0  0  0  0  0  0  0  0  0
  -10.4761    3.2252   -0.0000 C   0  0  0  0  0  0  0  0  0  0  0  0
  -11.7827    2.5072   -0.0000 C   0  0  0  0  0  0  0  0  0  0  0  0
  -13.0892    3.2723   -0.0000 O   0  0  0  0  0  0  0  0  0  0  0  0
  -14.3958    2.5543   -0.0000 C   0  0  0  0  0  0  0  0  0  0  0  0
  1  2  2  0
  2  3  1  0
  2  4  1  0
  3  5  1  0
  3  6  1  0
  4  7  2  0
  5  8  2  0
  5  9  1  0
  6 10  1  0
  8 11  1  0
  9 12  2  0
 11 13  2  0
 11 14  1  0
 14 15  1  0
 15 16  2  0
 15 17  1  0
 16 18  1  0
 17 19  2  0
 18 20  2  0
 20 21  1  0
 21 22  1  0
  7  9  1  0
 12 13  1  0
 19 20  1  0
M  END
>  <Target>  (29) 
Cyclin-Dependent Kinase 4 (CDK4))

>  <IC50 (nM)>  (29) 
600.0

>  <pIC50>  (29) 
6.2218

$$$$
30.0
     RDKit          2D

 20 22  0  0  0  0  0  0  0  0999 V2000
    0.0000   -0.0000   -0.0000 O   0  0  0  0  0  0  0  0  0  0  0  0
   -1.3070    0.7536   -0.0000 C   0  0  0  0  0  0  0  0  0  0  0  0
   -2.6140    0.0353   -0.0000 N   0  0  0  0  0  0  0  0  0  0  0  0
   -1.3306    2.2608   -0.0000 C   0  0  0  0  0  0  0  0  0  0  0  0
   -3.9210    0.8478   -0.0000 C   0  0  0  0  0  0  0  0  0  0  0  0
   -2.6376   -1.4248   -0.0000 C   0  0  0  0  0  0  0  0  0  0  0  0
   -2.6376    3.0261   -0.0000 C   0  0  0  0  0  0  0  0  0  0  0  0
   -5.2281    0.1295   -0.0000 N   0  0  0  0  0  0  0  0  0  0  0  0
   -3.9446    2.3550   -0.0000 C   0  0  0  0  0  0  0  0  0  0  0  0
   -1.3777   -2.1430   -0.0000 C   0  0  0  0  0  0  0  0  0  0  0  0
   -6.5351    0.8831   -0.0000 C   0  0  0  0  0  0  0  0  0  0  0  0
   -5.2516    3.1203   -0.0000 C   0  0  0  0  0  0  0  0  0  0  0  0
   -6.5586    2.3903   -0.0000 N   0  0  0  0  0  0  0  0  0  0  0  0
   -7.8421    0.1648   -0.0000 N   0  0  0  0  0  0  0  0  0  0  0  0
   -9.1491    0.9184   -0.0000 C   0  0  0  0  0  0  0  0  0  0  0  0
   -9.1726    2.4256   -0.0000 C   0  0  0  0  0  0  0  0  0  0  0  0
  -10.4561    0.2002   -0.0000 C   0  0  0  0  0  0  0  0  0  0  0  0
  -10.4797    3.1910   -0.0000 C   0  0  0  0  0  0  0  0  0  0  0  0
  -11.7631    0.9538   -0.0000 C   0  0  0  0  0  0  0  0  0  0  0  0
  -11.7867    2.4727   -0.0000 C   0  0  0  0  0  0  0  0  0  0  0  0
  1  2  2  0
  2  3  1  0
  2  4  1  0
  3  5  1  0
  3  6  1  0
  4  7  2  0
  5  8  2  0
  5  9  1  0
  6 10  1  0
  8 11  1  0
  9 12  2  0
 11 13  2  0
 11 14  1  0
 14 15  1  0
 15 16  2  0
 15 17  1  0
 16 18  1  0
 17 19  2  0
 18 20  2  0
  7  9  1  0
 12 13  1  0
 19 20  1  0
M  END
>  <Target>  (30) 
Cyclin-Dependent Kinase 4 (CDK4))

>  <IC50 (nM)>  (30) 
620.0

>  <pIC50>  (30) 
6.2076

$$$$
31.0
     RDKit          2D

 30 33  0  0  0  0  0  0  0  0999 V2000
    0.0000   -0.0000   -0.0000 O   0  0  0  0  0  0  0  0  0  0  0  0
   -1.3090    0.7666   -0.0000 C   0  0  0  0  0  0  0  0  0  0  0  0
   -2.6181    0.0472   -0.0000 N   0  0  0  0  0  0  0  0  0  0  0  0
   -1.3326    2.2761   -0.0000 C   0  0  0  0  0  0  0  0  0  0  0  0
   -3.9271    0.8609   -0.0000 C   0  0  0  0  0  0  0  0  0  0  0  0
   -2.6417   -1.4152   -0.0000 C   0  0  0  0  0  0  0  0  0  0  0  0
   -2.6417    3.0308   -0.0000 C   0  0  0  0  0  0  0  0  0  0  0  0
   -5.2362    0.1415   -0.0000 N   0  0  0  0  0  0  0  0  0  0  0  0
   -3.9507    2.3704   -0.0000 C   0  0  0  0  0  0  0  0  0  0  0  0
   -1.3798   -2.1346   -0.0000 C   0  0  0  0  0  0  0  0  0  0  0  0
   -6.5452    0.8963   -0.0000 C   0  0  0  0  0  0  0  0  0  0  0  0
   -5.2598    3.1252   -0.0000 C   0  0  0  0  0  0  0  0  0  0  0  0
   -6.5688    2.4058   -0.0000 N   0  0  0  0  0  0  0  0  0  0  0  0
   -7.8543    0.1769   -0.0000 N   0  0  0  0  0  0  0  0  0  0  0  0
   -9.1633    0.9317   -0.0000 C   0  0  0  0  0  0  0  0  0  0  0  0
  -10.4723    0.2123   -0.0000 C   0  0  0  0  0  0  0  0  0  0  0  0
   -9.1869    2.4412   -0.0000 C   0  0  0  0  0  0  0  0  0  0  0  0
  -11.7814    0.9788   -0.0000 C   0  0  0  0  0  0  0  0  0  0  0  0
  -10.4959    3.2077   -0.0000 C   0  0  0  0  0  0  0  0  0  0  0  0
  -11.8050    2.4884   -0.0000 C   0  0  0  0  0  0  0  0  0  0  0  0
  -13.1140    3.2431   -0.0000 N   0  0  0  0  0  0  0  0  0  0  0  0
  -13.1376    4.7527   -0.0000 C   0  0  0  0  0  0  0  0  0  0  0  0
  -14.4231    2.5237   -0.0000 C   0  0  0  0  0  0  0  0  0  0  0  0
  -14.4466    5.5192   -0.0000 C   0  0  0  0  0  0  0  0  0  0  0  0
  -15.7321    3.2903   -0.0000 C   0  0  0  0  0  0  0  0  0  0  0  0
  -15.7557    4.7998   -0.0000 C   0  0  0  0  0  0  0  0  0  0  0  0
  -17.0647    5.5546   -0.0000 C   0  0  0  0  0  0  0  0  0  0  0  0
  -18.3738    4.8352   -0.0000 C   0  0  0  0  0  0  0  0  0  0  0  0
  -18.3974    3.3728   -0.0000 C   0  0  0  0  0  0  0  0  0  0  0  0
  -17.1355    2.6535   -0.0000 O   0  0  0  0  0  0  0  0  0  0  0  0
  1  2  2  0
  2  3  1  0
  2  4  1  0
  3  5  1  0
  3  6  1  0
  4  7  2  0
  5  8  2  0
  5  9  1  0
  6 10  1  0
  8 11  1  0
  9 12  2  0
 11 13  2  0
 11 14  1  0
 14 15  1  0
 15 16  2  0
 15 17  1  0
 16 18  1  0
 17 19  2  0
 18 20  2  0
 20 21  1  0
 21 22  1  0
 21 23  1  0
 22 24  1  0
 23 25  1  0
 24 26  1  0
 26 27  1  0
 27 28  1  0
 28 29  1  0
 29 30  1  0
  7  9  1  0
 12 13  1  0
 19 20  1  0
 25 26  1  0
M  END
>  <Target>  (31) 
Cyclin-Dependent Kinase 4 (CDK4))

>  <IC50 (nM)>  (31) 
900.0

>  <pIC50>  (31) 
6.0458

$$$$
32.0
     RDKit          2D

 25 28  0  0  0  0  0  0  0  0999 V2000
    0.0000   -0.0000   -0.0000 O   0  0  0  0  0  0  0  0  0  0  0  0
   -1.3237    0.7632   -0.0000 C   0  0  0  0  0  0  0  0  0  0  0  0
   -2.6475    0.0358   -0.0000 N   0  0  0  0  0  0  0  0  0  0  0  0
   -1.3476    2.2897   -0.0000 C   0  0  0  0  0  0  0  0  0  0  0  0
   -3.9712    0.8586   -0.0000 C   0  0  0  0  0  0  0  0  0  0  0  0
   -2.6713   -1.4430   -0.0000 C   0  0  0  0  0  0  0  0  0  0  0  0
   -2.6713    3.0530   -0.0000 C   0  0  0  0  0  0  0  0  0  0  0  0
   -5.2950    0.1312   -0.0000 N   0  0  0  0  0  0  0  0  0  0  0  0
   -3.9951    2.3851   -0.0000 C   0  0  0  0  0  0  0  0  0  0  0  0
   -1.3953   -2.1705   -0.0000 C   0  0  0  0  0  0  0  0  0  0  0  0
   -6.6187    0.9063   -0.0000 C   0  0  0  0  0  0  0  0  0  0  0  0
   -5.3188    3.1484   -0.0000 C   0  0  0  0  0  0  0  0  0  0  0  0
   -1.4192   -3.6492   -0.0000 C   0  0  0  0  0  0  0  0  0  0  0  0
   -0.1193   -1.4072   -0.0000 C   0  0  0  0  0  0  0  0  0  0  0  0
   -6.6426    2.4328   -0.0000 N   0  0  0  0  0  0  0  0  0  0  0  0
   -7.9425    0.1789   -0.0000 N   0  0  0  0  0  0  0  0  0  0  0  0
   -0.1431   -4.3767   -0.0000 C   0  0  0  0  0  0  0  0  0  0  0  0
    1.1568   -2.1347   -0.0000 C   0  0  0  0  0  0  0  0  0  0  0  0
   -7.9663   -1.2999   -0.0000 C   0  0  0  0  0  0  0  0  0  0  0  0
    1.1329   -3.6135   -0.0000 C   0  0  0  0  0  0  0  0  0  0  0  0
   -9.2901   -2.0274   -0.0000 C   0  0  0  0  0  0  0  0  0  0  0  0
   -6.6903   -2.0274   -0.0000 C   0  0  0  0  0  0  0  0  0  0  0  0
   -9.3139   -3.5061   -0.0000 C   0  0  0  0  0  0  0  0  0  0  0  0
   -6.7141   -3.5061   -0.0000 C   0  0  0  0  0  0  0  0  0  0  0  0
   -8.0379   -4.2455   -0.0000 C   0  0  0  0  0  0  0  0  0  0  0  0
  1  2  2  0
  2  3  1  0
  2  4  1  0
  3  5  1  0
  3  6  1  0
  4  7  2  0
  5  8  2  0
  5  9  1  0
  6 10  1  0
  8 11  1  0
  9 12  2  0
 10 13  2  0
 10 14  1  0
 11 15  2  0
 11 16  1  0
 13 17  1  0
 14 18  2  0
 16 19  1  0
 17 20  2  0
 19 21  2  0
 19 22  1  0
 21 23  1  0
 22 24  2  0
 23 25  2  0
  7  9  1  0
 12 15  1  0
 18 20  1  0
 24 25  1  0
M  END
>  <Target>  (32) 
Cyclin-Dependent Kinase 4 (CDK4))

>  <IC50 (nM)>  (32) 
940.0

>  <pIC50>  (32) 
6.0269

$$$$
33.0
     RDKit          2D

 21 23  0  0  0  0  0  0  0  0999 V2000
    0.0000   -0.0000   -0.0000 F   0  0  0  0  0  0  0  0  0  0  0  0
    1.2893   -0.7350   -0.0000 C   0  0  0  0  0  0  0  0  0  0  0  0
    1.2652   -2.2292   -0.0000 C   0  0  0  0  0  0  0  0  0  0  0  0
    2.5787    0.0482   -0.0000 C   0  0  0  0  0  0  0  0  0  0  0  0
    2.5546   -2.9642   -0.0000 C   0  0  0  0  0  0  0  0  0  0  0  0
    3.8680   -0.6868   -0.0000 C   0  0  0  0  0  0  0  0  0  0  0  0
    3.8439   -2.1810   -0.0000 C   0  0  0  0  0  0  0  0  0  0  0  0
    5.1332   -2.9160   -0.0000 N   0  0  0  0  0  0  0  0  0  0  0  0
    6.4225   -2.1328   -0.0000 C   0  0  0  0  0  0  0  0  0  0  0  0
    7.7119   -2.8678   -0.0000 N   0  0  0  0  0  0  0  0  0  0  0  0
    6.3984   -0.5904   -0.0000 N   0  0  0  0  0  0  0  0  0  0  0  0
    9.0012   -2.0846   -0.0000 C   0  0  0  0  0  0  0  0  0  0  0  0
    7.6878    0.1807   -0.0000 C   0  0  0  0  0  0  0  0  0  0  0  0
   10.2905   -2.8678   -0.0000 N   0  0  0  0  0  0  0  0  0  0  0  0
    8.9771   -0.5422   -0.0000 C   0  0  0  0  0  0  0  0  0  0  0  0
   11.5798   -2.0846   -0.0000 C   0  0  0  0  0  0  0  0  0  0  0  0
   10.2664   -4.3620   -0.0000 C   0  0  0  0  0  0  0  0  0  0  0  0
   10.2664    0.1928   -0.0000 C   0  0  0  0  0  0  0  0  0  0  0  0
   12.8692   -2.8196   -0.0000 O   0  0  0  0  0  0  0  0  0  0  0  0
   11.5557   -0.5422   -0.0000 C   0  0  0  0  0  0  0  0  0  0  0  0
   11.5557   -5.0971   -0.0000 C   0  0  0  0  0  0  0  0  0  0  0  0
  1  2  1  0
  2  3  2  0
  2  4  1  0
  3  5  1  0
  4  6  2  0
  5  7  2  0
  7  8  1  0
  8  9  1  0
  9 10  2  0
  9 11  1  0
 10 12  1  0
 11 13  2  0
 12 14  1  0
 12 15  2  0
 14 16  1  0
 14 17  1  0
 15 18  1  0
 16 19  2  0
 16 20  1  0
 17 21  1  0
  6  7  1  0
 13 15  1  0
 18 20  2  0
M  END
>  <Target>  (33) 
Cyclin-Dependent Kinase 4 (CDK4))

>  <IC50 (nM)>  (33) 
1238.0

>  <pIC50>  (33) 
5.9073

$$$$
34.0
     RDKit          2D

 21 23  0  0  0  0  0  0  0  0999 V2000
    0.0000   -0.0000   -0.0000 F   0  0  0  0  0  0  0  0  0  0  0  0
    1.2858    0.7691   -0.0000 C   0  0  0  0  0  0  0  0  0  0  0  0
    2.5715    0.0360   -0.0000 C   0  0  0  0  0  0  0  0  0  0  0  0
    1.2617    2.3072   -0.0000 C   0  0  0  0  0  0  0  0  0  0  0  0
    3.8573    0.8051   -0.0000 C   0  0  0  0  0  0  0  0  0  0  0  0
    2.5475    3.0762   -0.0000 C   0  0  0  0  0  0  0  0  0  0  0  0
    5.1431    0.0721   -0.0000 N   0  0  0  0  0  0  0  0  0  0  0  0
    3.8333    2.3432   -0.0000 C   0  0  0  0  0  0  0  0  0  0  0  0
    6.4288    0.8412   -0.0000 C   0  0  0  0  0  0  0  0  0  0  0  0
    7.7146    0.1081   -0.0000 N   0  0  0  0  0  0  0  0  0  0  0  0
    6.4048    2.3793   -0.0000 N   0  0  0  0  0  0  0  0  0  0  0  0
    9.0004    0.8772   -0.0000 C   0  0  0  0  0  0  0  0  0  0  0  0
    7.6906    3.1483   -0.0000 C   0  0  0  0  0  0  0  0  0  0  0  0
   10.2862    0.0961   -0.0000 N   0  0  0  0  0  0  0  0  0  0  0  0
    8.9763    2.4153   -0.0000 C   0  0  0  0  0  0  0  0  0  0  0  0
   11.5719    0.8652   -0.0000 C   0  0  0  0  0  0  0  0  0  0  0  0
   10.2621   -1.3939   -0.0000 C   0  0  0  0  0  0  0  0  0  0  0  0
   10.2621    3.1483   -0.0000 C   0  0  0  0  0  0  0  0  0  0  0  0
   12.8577    0.1322   -0.0000 O   0  0  0  0  0  0  0  0  0  0  0  0
   11.5479    2.4033   -0.0000 C   0  0  0  0  0  0  0  0  0  0  0  0
   11.5479   -2.1269   -0.0000 C   0  0  0  0  0  0  0  0  0  0  0  0
  1  2  1  0
  2  3  2  0
  2  4  1  0
  3  5  1  0
  4  6  2  0
  5  7  1  0
  5  8  2  0
  7  9  1  0
  9 10  2  0
  9 11  1  0
 10 12  1  0
 11 13  2  0
 12 14  1  0
 12 15  2  0
 14 16  1  0
 14 17  1  0
 15 18  1  0
 16 19  2  0
 16 20  1  0
 17 21  1  0
  6  8  1  0
 13 15  1  0
 18 20  2  0
M  END
>  <Target>  (34) 
Cyclin-Dependent Kinase 4 (CDK4))

>  <IC50 (nM)>  (34) 
1400.0

>  <pIC50>  (34) 
5.8539

$$$$
35.0
     RDKit          2D

 25 27  0  0  0  0  0  0  0  0999 V2000
    0.0000   -0.0000   -0.0000 O   0  0  0  0  0  0  0  0  0  0  0  0
   -1.3075    0.7539   -0.0000 C   0  0  0  0  0  0  0  0  0  0  0  0
   -2.6150    0.0353   -0.0000 N   0  0  0  0  0  0  0  0  0  0  0  0
   -1.3311    2.2617   -0.0000 C   0  0  0  0  0  0  0  0  0  0  0  0
   -3.9226    0.8481   -0.0000 C   0  0  0  0  0  0  0  0  0  0  0  0
   -2.6386   -1.4253   -0.0000 C   0  0  0  0  0  0  0  0  0  0  0  0
   -2.6386    3.0155   -0.0000 C   0  0  0  0  0  0  0  0  0  0  0  0
   -5.2301    0.1296   -0.0000 N   0  0  0  0  0  0  0  0  0  0  0  0
   -3.9461    2.3559   -0.0000 C   0  0  0  0  0  0  0  0  0  0  0  0
   -1.3782   -2.1439   -0.0000 C   0  0  0  0  0  0  0  0  0  0  0  0
   -6.5376    0.8835   -0.0000 C   0  0  0  0  0  0  0  0  0  0  0  0
   -5.2536    3.1098   -0.0000 C   0  0  0  0  0  0  0  0  0  0  0  0
   -6.5612    2.3912   -0.0000 N   0  0  0  0  0  0  0  0  0  0  0  0
   -7.8451    0.1649   -0.0000 N   0  0  0  0  0  0  0  0  0  0  0  0
   -9.1526    0.9188   -0.0000 C   0  0  0  0  0  0  0  0  0  0  0  0
  -10.4602    0.2003   -0.0000 C   0  0  0  0  0  0  0  0  0  0  0  0
   -9.1762    2.4266   -0.0000 C   0  0  0  0  0  0  0  0  0  0  0  0
  -11.7677    0.9541   -0.0000 C   0  0  0  0  0  0  0  0  0  0  0  0
  -10.4837    3.1805   -0.0000 C   0  0  0  0  0  0  0  0  0  0  0  0
  -11.7912    2.4619   -0.0000 C   0  0  0  0  0  0  0  0  0  0  0  0
  -13.0988    3.2158   -0.0000 N   0  0  0  0  0  0  0  0  0  0  0  0
  -13.1223    4.7236   -0.0000 C   0  0  0  0  0  0  0  0  0  0  0  0
  -14.4063    2.4972   -0.0000 C   0  0  0  0  0  0  0  0  0  0  0  0
  -14.4298    5.4774   -0.0000 C   0  0  0  0  0  0  0  0  0  0  0  0
  -15.7138    3.2511   -0.0000 C   0  0  0  0  0  0  0  0  0  0  0  0
  1  2  2  0
  2  3  1  0
  2  4  1  0
  3  5  1  0
  3  6  1  0
  4  7  2  0
  5  8  2  0
  5  9  1  0
  6 10  1  0
  8 11  1  0
  9 12  2  0
 11 13  2  0
 11 14  1  0
 14 15  1  0
 15 16  2  0
 15 17  1  0
 16 18  1  0
 17 19  2  0
 18 20  2  0
 20 21  1  0
 21 22  1  0
 21 23  1  0
 22 24  1  0
 23 25  1  0
  7  9  1  0
 12 13  1  0
 19 20  1  0
M  END
>  <Target>  (35) 
Cyclin-Dependent Kinase 4 (CDK4))

>  <IC50 (nM)>  (35) 
1400.0

>  <pIC50>  (35) 
5.8539

$$$$
36.0
     RDKit          2D

 22 24  0  0  0  0  0  0  0  0999 V2000
    0.0000   -0.0000   -0.0000 O   0  0  0  0  0  0  0  0  0  0  0  0
   -1.3213    0.7618   -0.0000 C   0  0  0  0  0  0  0  0  0  0  0  0
   -2.6426    0.0357   -0.0000 N   0  0  0  0  0  0  0  0  0  0  0  0
   -1.3451    2.2855   -0.0000 C   0  0  0  0  0  0  0  0  0  0  0  0
   -3.9639    0.8571   -0.0000 C   0  0  0  0  0  0  0  0  0  0  0  0
   -2.6664   -1.4403   -0.0000 C   0  0  0  0  0  0  0  0  0  0  0  0
   -2.6664    3.0473   -0.0000 C   0  0  0  0  0  0  0  0  0  0  0  0
   -5.2852    0.1309   -0.0000 N   0  0  0  0  0  0  0  0  0  0  0  0
   -3.9877    2.3807   -0.0000 C   0  0  0  0  0  0  0  0  0  0  0  0
   -1.3927   -2.1665   -0.0000 C   0  0  0  0  0  0  0  0  0  0  0  0
   -6.6065    0.8928   -0.0000 C   0  0  0  0  0  0  0  0  0  0  0  0
   -5.3090    3.1426   -0.0000 C   0  0  0  0  0  0  0  0  0  0  0  0
   -1.4165   -3.6425   -0.0000 C   0  0  0  0  0  0  0  0  0  0  0  0
   -6.6303    2.4164   -0.0000 N   0  0  0  0  0  0  0  0  0  0  0  0
   -7.9278    0.1667   -0.0000 N   0  0  0  0  0  0  0  0  0  0  0  0
   -0.1428   -4.3686   -0.0000 C   0  0  0  0  0  0  0  0  0  0  0  0
   -7.9517   -1.3094   -0.0000 C   0  0  0  0  0  0  0  0  0  0  0  0
   -9.2730   -2.0355   -0.0000 C   0  0  0  0  0  0  0  0  0  0  0  0
   -6.6780   -2.0355   -0.0000 C   0  0  0  0  0  0  0  0  0  0  0  0
   -9.2968   -3.5116   -0.0000 C   0  0  0  0  0  0  0  0  0  0  0  0
   -6.7018   -3.5116   -0.0000 C   0  0  0  0  0  0  0  0  0  0  0  0
   -8.0231   -4.2377   -0.0000 C   0  0  0  0  0  0  0  0  0  0  0  0
  1  2  2  0
  2  3  1  0
  2  4  1  0
  3  5  1  0
  3  6  1  0
  4  7  2  0
  5  8  2  0
  5  9  1  0
  6 10  1  0
  8 11  1  0
  9 12  2  0
 10 13  1  0
 11 14  2  0
 11 15  1  0
 13 16  1  0
 15 17  1  0
 17 18  2  0
 17 19  1  0
 18 20  1  0
 19 21  2  0
 20 22  2  0
  7  9  1  0
 12 14  1  0
 21 22  1  0
M  END
>  <Target>  (36) 
Cyclin-Dependent Kinase 4 (CDK4))

>  <IC50 (nM)>  (36) 
1495.0

>  <pIC50>  (36) 
5.8254

$$$$
37.0
     RDKit          2D

 30 33  0  0  0  0  0  0  0  0999 V2000
    0.0000   -0.0000   -0.0000 O   0  0  0  0  0  0  0  0  0  0  0  0
   -1.3247    0.7757   -0.0000 C   0  0  0  0  0  0  0  0  0  0  0  0
   -2.6494    0.0477   -0.0000 N   0  0  0  0  0  0  0  0  0  0  0  0
   -1.3486    2.3033   -0.0000 C   0  0  0  0  0  0  0  0  0  0  0  0
   -3.9742    0.8712   -0.0000 C   0  0  0  0  0  0  0  0  0  0  0  0
   -2.6733   -1.4321   -0.0000 C   0  0  0  0  0  0  0  0  0  0  0  0
   -2.6733    3.0671   -0.0000 C   0  0  0  0  0  0  0  0  0  0  0  0
   -5.2989    0.1432   -0.0000 N   0  0  0  0  0  0  0  0  0  0  0  0
   -3.9980    2.3988   -0.0000 C   0  0  0  0  0  0  0  0  0  0  0  0
   -1.3963   -2.1601   -0.0000 C   0  0  0  0  0  0  0  0  0  0  0  0
   -6.6236    0.9189   -0.0000 C   0  0  0  0  0  0  0  0  0  0  0  0
   -5.3227    3.1746   -0.0000 C   0  0  0  0  0  0  0  0  0  0  0  0
   -0.1193   -1.3844   -0.0000 O   0  0  0  0  0  0  0  0  0  0  0  0
   -1.4202   -3.6400   -0.0000 C   0  0  0  0  0  0  0  0  0  0  0  0
   -6.6475    2.4466   -0.0000 N   0  0  0  0  0  0  0  0  0  0  0  0
   -7.9483    0.1910   -0.0000 N   0  0  0  0  0  0  0  0  0  0  0  0
   -0.1432   -4.3680   -0.0000 O   0  0  0  0  0  0  0  0  0  0  0  0
   -7.9722   -1.2889   -0.0000 C   0  0  0  0  0  0  0  0  0  0  0  0
   -9.2969   -2.0169   -0.0000 C   0  0  0  0  0  0  0  0  0  0  0  0
   -6.6952   -2.0169   -0.0000 C   0  0  0  0  0  0  0  0  0  0  0  0
   -9.3208   -3.4968   -0.0000 C   0  0  0  0  0  0  0  0  0  0  0  0
   -6.7191   -3.4968   -0.0000 C   0  0  0  0  0  0  0  0  0  0  0  0
   -8.0438   -4.2367   -0.0000 C   0  0  0  0  0  0  0  0  0  0  0  0
   -8.0677   -5.7166   -0.0000 N   0  0  0  0  0  0  0  0  0  0  0  0
   -6.7907   -6.4446   -0.0000 C   0  0  0  0  0  0  0  0  0  0  0  0
   -9.3924   -6.4446   -0.0000 C   0  0  0  0  0  0  0  0  0  0  0  0
   -6.8145   -7.9244   -0.0000 C   0  0  0  0  0  0  0  0  0  0  0  0
   -9.4162   -7.9244   -0.0000 C   0  0  0  0  0  0  0  0  0  0  0  0
   -8.1393   -8.6524   -0.0000 N   0  0  0  0  0  0  0  0  0  0  0  0
   -8.1631  -10.1323   -0.0000 C   0  0  0  0  0  0  0  0  0  0  0  0
  1  2  2  0
  2  3  1  0
  2  4  1  0
  3  5  1  0
  3  6  1  0
  4  7  2  0
  5  8  2  0
  5  9  1  0
  6 10  1  0
  8 11  1  0
  9 12  2  0
 10 13  1  6
 10 14  1  0
 11 15  2  0
 11 16  1  0
 14 17  1  0
 16 18  1  0
 18 19  2  0
 18 20  1  0
 19 21  1  0
 20 22  2  0
 21 23  2  0
 23 24  1  0
 24 25  1  0
 24 26  1  0
 25 27  1  0
 26 28  1  0
 27 29  1  0
 29 30  1  0
  7  9  1  0
 12 15  1  0
 22 23  1  0
 28 29  1  0
M  END
>  <Target>  (37) 
Cyclin-Dependent Kinase 4 (CDK4))

>  <IC50 (nM)>  (37) 
1650.0

>  <pIC50>  (37) 
5.7825

$$$$
38.0
     RDKit          2D

 24 27  0  0  0  0  0  0  0  0999 V2000
    0.0000   -0.0000   -0.0000 O   0  0  0  0  0  0  0  0  0  0  0  0
   -1.3212    0.7618   -0.0000 C   0  0  0  0  0  0  0  0  0  0  0  0
   -2.6424    0.0357   -0.0000 N   0  0  0  0  0  0  0  0  0  0  0  0
   -1.3450    2.2853   -0.0000 C   0  0  0  0  0  0  0  0  0  0  0  0
   -3.9636    0.8570   -0.0000 C   0  0  0  0  0  0  0  0  0  0  0  0
   -2.6662   -1.4402   -0.0000 C   0  0  0  0  0  0  0  0  0  0  0  0
   -2.6662    3.0471   -0.0000 C   0  0  0  0  0  0  0  0  0  0  0  0
   -5.2848    0.1309   -0.0000 N   0  0  0  0  0  0  0  0  0  0  0  0
   -3.9874    2.3805   -0.0000 C   0  0  0  0  0  0  0  0  0  0  0  0
   -3.9874   -2.1663   -0.0000 C   0  0  0  0  0  0  0  0  0  0  0  0
   -1.3926   -2.1663   -0.0000 C   0  0  0  0  0  0  0  0  0  0  0  0
   -6.6060    0.8927   -0.0000 C   0  0  0  0  0  0  0  0  0  0  0  0
   -5.3086    3.1423   -0.0000 C   0  0  0  0  0  0  0  0  0  0  0  0
   -4.0112   -3.6422   -0.0000 C   0  0  0  0  0  0  0  0  0  0  0  0
   -1.4164   -3.6422   -0.0000 C   0  0  0  0  0  0  0  0  0  0  0  0
   -6.6298    2.4162   -0.0000 N   0  0  0  0  0  0  0  0  0  0  0  0
   -7.9272    0.1666   -0.0000 N   0  0  0  0  0  0  0  0  0  0  0  0
   -2.7376   -4.3683   -0.0000 C   0  0  0  0  0  0  0  0  0  0  0  0
   -7.9510   -1.3093   -0.0000 C   0  0  0  0  0  0  0  0  0  0  0  0
   -9.2722   -2.0354   -0.0000 C   0  0  0  0  0  0  0  0  0  0  0  0
   -6.6774   -2.0354   -0.0000 C   0  0  0  0  0  0  0  0  0  0  0  0
   -9.2960   -3.5113   -0.0000 C   0  0  0  0  0  0  0  0  0  0  0  0
   -6.7012   -3.5113   -0.0000 C   0  0  0  0  0  0  0  0  0  0  0  0
   -8.0224   -4.2493   -0.0000 C   0  0  0  0  0  0  0  0  0  0  0  0
  1  2  2  0
  2  3  1  0
  2  4  1  0
  3  5  1  0
  3  6  1  0
  4  7  2  0
  5  8  2  0
  5  9  1  0
  6 10  2  0
  6 11  1  0
  8 12  1  0
  9 13  2  0
 10 14  1  0
 11 15  2  0
 12 16  2  0
 12 17  1  0
 14 18  2  0
 17 19  1  0
 19 20  2  0
 19 21  1  0
 20 22  1  0
 21 23  2  0
 22 24  2  0
  7  9  1  0
 13 16  1  0
 15 18  1  0
 23 24  1  0
M  END
>  <Target>  (38) 
Cyclin-Dependent Kinase 4 (CDK4))

>  <IC50 (nM)>  (38) 
1667.0

>  <pIC50>  (38) 
5.7781

$$$$
39.0
     RDKit          2D

 23 25  0  0  0  0  0  0  0  0999 V2000
    0.0000   -0.0000   -0.0000 O   0  0  0  0  0  0  0  0  0  0  0  0
   -1.3078    0.7541   -0.0000 C   0  0  0  0  0  0  0  0  0  0  0  0
   -2.6157    0.0353   -0.0000 N   0  0  0  0  0  0  0  0  0  0  0  0
   -1.3314    2.2622   -0.0000 C   0  0  0  0  0  0  0  0  0  0  0  0
   -3.9235    0.8483   -0.0000 C   0  0  0  0  0  0  0  0  0  0  0  0
   -2.6392   -1.4256   -0.0000 C   0  0  0  0  0  0  0  0  0  0  0  0
   -2.6392    3.0163   -0.0000 C   0  0  0  0  0  0  0  0  0  0  0  0
   -5.2313    0.1296   -0.0000 N   0  0  0  0  0  0  0  0  0  0  0  0
   -3.9470    2.3564   -0.0000 C   0  0  0  0  0  0  0  0  0  0  0  0
   -1.3785   -2.1444   -0.0000 C   0  0  0  0  0  0  0  0  0  0  0  0
   -6.5391    0.8837   -0.0000 C   0  0  0  0  0  0  0  0  0  0  0  0
   -5.2549    3.1105   -0.0000 C   0  0  0  0  0  0  0  0  0  0  0  0
   -6.5627    2.3918   -0.0000 N   0  0  0  0  0  0  0  0  0  0  0  0
   -7.8470    0.1650   -0.0000 N   0  0  0  0  0  0  0  0  0  0  0  0
   -9.1548    0.9190   -0.0000 C   0  0  0  0  0  0  0  0  0  0  0  0
  -10.4626    0.2003   -0.0000 C   0  0  0  0  0  0  0  0  0  0  0  0
   -9.1784    2.4271   -0.0000 C   0  0  0  0  0  0  0  0  0  0  0  0
  -11.7704    0.9544   -0.0000 C   0  0  0  0  0  0  0  0  0  0  0  0
  -10.4862    3.1812   -0.0000 C   0  0  0  0  0  0  0  0  0  0  0  0
  -13.0783    0.2356   -0.0000 O   0  0  0  0  0  0  0  0  0  0  0  0
  -11.7940    2.4625   -0.0000 C   0  0  0  0  0  0  0  0  0  0  0  0
  -14.5393    0.6480   -0.0000 C   0  0  0  0  0  0  0  0  0  0  0  0
  -13.1018    3.2165   -0.0000 O   0  0  0  0  0  0  0  0  0  0  0  0
  1  2  2  0
  2  3  1  0
  2  4  1  0
  3  5  1  0
  3  6  1  0
  4  7  2  0
  5  8  2  0
  5  9  1  0
  6 10  1  0
  8 11  1  0
  9 12  2  0
 11 13  2  0
 11 14  1  0
 14 15  1  0
 15 16  2  0
 15 17  1  0
 16 18  1  0
 17 19  2  0
 18 20  1  0
 18 21  2  0
 20 22  1  0
 21 23  1  0
  7  9  1  0
 12 13  1  0
 19 21  1  0
M  END
>  <Target>  (39) 
Cyclin-Dependent Kinase 4 (CDK4))

>  <IC50 (nM)>  (39) 
1825.0

>  <pIC50>  (39) 
5.7387

$$$$
40.0
     RDKit          2D

 35 39  0  0  0  0  0  0  0  0999 V2000
    0.0000   -0.0000   -0.0000 O   0  0  0  0  0  0  0  0  0  0  0  0
   -1.3261    0.7765   -0.0000 C   0  0  0  0  0  0  0  0  0  0  0  0
   -2.6522    0.0478   -0.0000 N   0  0  0  0  0  0  0  0  0  0  0  0
   -1.3500    2.3058   -0.0000 C   0  0  0  0  0  0  0  0  0  0  0  0
   -3.9783    0.8721   -0.0000 C   0  0  0  0  0  0  0  0  0  0  0  0
   -2.6761   -1.4336   -0.0000 C   0  0  0  0  0  0  0  0  0  0  0  0
   -2.6761    3.0704   -0.0000 C   0  0  0  0  0  0  0  0  0  0  0  0
   -5.3044    0.1434   -0.0000 N   0  0  0  0  0  0  0  0  0  0  0  0
   -4.0022    2.4013   -0.0000 C   0  0  0  0  0  0  0  0  0  0  0  0
   -4.0022   -2.1624   -0.0000 C   0  0  0  0  0  0  0  0  0  0  0  0
   -6.6305    0.9080   -0.0000 C   0  0  0  0  0  0  0  0  0  0  0  0
   -5.3283    3.1659   -0.0000 C   0  0  0  0  0  0  0  0  0  0  0  0
   -4.0261   -3.6438   -0.0000 O   0  0  0  0  0  0  0  0  0  0  0  0
   -6.6544    2.4372   -0.0000 N   0  0  0  0  0  0  0  0  0  0  0  0
   -7.9567    0.1792   -0.0000 N   0  0  0  0  0  0  0  0  0  0  0  0
   -2.7478   -4.3726   -0.0000 C   0  0  0  0  0  0  0  0  0  0  0  0
   -7.9805   -1.3022   -0.0000 C   0  0  0  0  0  0  0  0  0  0  0  0
   -2.7717   -5.8540   -0.0000 C   0  0  0  0  0  0  0  0  0  0  0  0
   -9.3067   -2.0310   -0.0000 C   0  0  0  0  0  0  0  0  0  0  0  0
   -6.7022   -2.0310   -0.0000 C   0  0  0  0  0  0  0  0  0  0  0  0
   -4.0978   -6.5828   -0.0000 C   0  0  0  0  0  0  0  0  0  0  0  0
   -1.4934   -6.5828   -0.0000 C   0  0  0  0  0  0  0  0  0  0  0  0
   -9.3305   -3.5124   -0.0000 C   0  0  0  0  0  0  0  0  0  0  0  0
   -6.7261   -3.5124   -0.0000 C   0  0  0  0  0  0  0  0  0  0  0  0
   -4.1217   -8.0642   -0.0000 C   0  0  0  0  0  0  0  0  0  0  0  0
   -1.5173   -8.0642   -0.0000 C   0  0  0  0  0  0  0  0  0  0  0  0
   -8.0522   -4.2531   -0.0000 C   0  0  0  0  0  0  0  0  0  0  0  0
   -2.8434   -8.7929   -0.0000 C   0  0  0  0  0  0  0  0  0  0  0  0
   -8.0761   -5.7345   -0.0000 N   0  0  0  0  0  0  0  0  0  0  0  0
   -6.7978   -6.4633   -0.0000 C   0  0  0  0  0  0  0  0  0  0  0  0
   -9.4022   -6.4633   -0.0000 C   0  0  0  0  0  0  0  0  0  0  0  0
   -6.8217   -7.9447   -0.0000 C   0  0  0  0  0  0  0  0  0  0  0  0
   -9.4261   -7.9447   -0.0000 C   0  0  0  0  0  0  0  0  0  0  0  0
   -8.1478   -8.6735   -0.0000 N   0  0  0  0  0  0  0  0  0  0  0  0
   -8.1717  -10.1549   -0.0000 C   0  0  0  0  0  0  0  0  0  0  0  0
  1  2  2  0
  2  3  1  0
  2  4  1  0
  3  5  1  0
  3  6  1  0
  4  7  2  0
  5  8  2  0
  5  9  1  0
  6 10  1  0
  8 11  1  0
  9 12  2  0
 10 13  1  0
 11 14  2  0
 11 15  1  0
 13 16  1  0
 15 17  1  0
 16 18  1  0
 17 19  2  0
 17 20  1  0
 18 21  2  0
 18 22  1  0
 19 23  1  0
 20 24  2  0
 21 25  1  0
 22 26  2  0
 23 27  2  0
 25 28  2  0
 27 29  1  0
 29 30  1  0
 29 31  1  0
 30 32  1  0
 31 33  1  0
 32 34  1  0
 34 35  1  0
  7  9  1  0
 12 14  1  0
 24 27  1  0
 26 28  1  0
 33 34  1  0
M  END
>  <Target>  (40) 
Cyclin-Dependent Kinase 4 (CDK4))

>  <IC50 (nM)>  (40) 
2100.0

>  <pIC50>  (40) 
5.6778

$$$$
41.0
     RDKit          2D

 25 27  0  0  0  0  0  0  0  0999 V2000
    0.0000   -0.0000   -0.0000 O   0  0  0  0  0  0  0  0  0  0  0  0
   -1.3080    0.7542   -0.0000 C   0  0  0  0  0  0  0  0  0  0  0  0
   -2.6161    0.0354   -0.0000 N   0  0  0  0  0  0  0  0  0  0  0  0
   -1.3316    2.2626   -0.0000 C   0  0  0  0  0  0  0  0  0  0  0  0
   -3.9241    0.8485   -0.0000 C   0  0  0  0  0  0  0  0  0  0  0  0
   -2.6396   -1.4259   -0.0000 C   0  0  0  0  0  0  0  0  0  0  0  0
   -2.6396    3.0167   -0.0000 C   0  0  0  0  0  0  0  0  0  0  0  0
   -5.2321    0.1296   -0.0000 N   0  0  0  0  0  0  0  0  0  0  0  0
   -3.9477    2.3568   -0.0000 C   0  0  0  0  0  0  0  0  0  0  0  0
   -1.3787   -2.1447   -0.0000 C   0  0  0  0  0  0  0  0  0  0  0  0
   -6.5402    0.8838   -0.0000 C   0  0  0  0  0  0  0  0  0  0  0  0
   -5.2557    3.1110   -0.0000 C   0  0  0  0  0  0  0  0  0  0  0  0
   -6.5638    2.3922   -0.0000 N   0  0  0  0  0  0  0  0  0  0  0  0
   -7.8482    0.1650   -0.0000 N   0  0  0  0  0  0  0  0  0  0  0  0
   -9.1563    0.9192   -0.0000 C   0  0  0  0  0  0  0  0  0  0  0  0
  -10.4643    0.2003   -0.0000 C   0  0  0  0  0  0  0  0  0  0  0  0
   -9.1798    2.4275   -0.0000 C   0  0  0  0  0  0  0  0  0  0  0  0
  -11.7723    0.9545   -0.0000 C   0  0  0  0  0  0  0  0  0  0  0  0
  -10.4879    3.1817   -0.0000 C   0  0  0  0  0  0  0  0  0  0  0  0
  -11.7959    2.4629   -0.0000 C   0  0  0  0  0  0  0  0  0  0  0  0
  -13.1039    3.2171   -0.0000 O   0  0  0  0  0  0  0  0  0  0  0  0
  -14.4120    2.4982   -0.0000 C   0  0  0  0  0  0  0  0  0  0  0  0
  -15.7200    3.2524   -0.0000 C   0  0  0  0  0  0  0  0  0  0  0  0
  -17.0280    2.5336   -0.0000 O   0  0  0  0  0  0  0  0  0  0  0  0
  -18.3361    3.2878   -0.0000 C   0  0  0  0  0  0  0  0  0  0  0  0
  1  2  2  0
  2  3  1  0
  2  4  1  0
  3  5  1  0
  3  6  1  0
  4  7  2  0
  5  8  2  0
  5  9  1  0
  6 10  1  0
  8 11  1  0
  9 12  2  0
 11 13  2  0
 11 14  1  0
 14 15  1  0
 15 16  2  0
 15 17  1  0
 16 18  1  0
 17 19  2  0
 18 20  2  0
 20 21  1  0
 21 22  1  0
 22 23  1  0
 23 24  1  0
 24 25  1  0
  7  9  1  0
 12 13  1  0
 19 20  1  0
M  END
>  <Target>  (41) 
Cyclin-Dependent Kinase 4 (CDK4))

>  <IC50 (nM)>  (41) 
2333.0

>  <pIC50>  (41) 
5.6321

$$$$
42.0
     RDKit          2D

 25 28  0  0  0  0  0  0  0  0999 V2000
    0.0000   -0.0000   -0.0000 O   0  0  0  0  0  0  0  0  0  0  0  0
   -1.3067    0.7534   -0.0000 C   0  0  0  0  0  0  0  0  0  0  0  0
   -2.6135    0.0353   -0.0000 N   0  0  0  0  0  0  0  0  0  0  0  0
   -1.3303    2.2603   -0.0000 C   0  0  0  0  0  0  0  0  0  0  0  0
   -3.9202    0.8476   -0.0000 C   0  0  0  0  0  0  0  0  0  0  0  0
   -2.6370   -1.4245   -0.0000 C   0  0  0  0  0  0  0  0  0  0  0  0
   -2.6370    3.0137   -0.0000 C   0  0  0  0  0  0  0  0  0  0  0  0
   -5.2269    0.1295   -0.0000 N   0  0  0  0  0  0  0  0  0  0  0  0
   -3.9437    2.3545   -0.0000 C   0  0  0  0  0  0  0  0  0  0  0  0
   -1.3774   -2.1426   -0.0000 C   0  0  0  0  0  0  0  0  0  0  0  0
   -6.5336    0.8829   -0.0000 C   0  0  0  0  0  0  0  0  0  0  0  0
   -5.2505    3.1079   -0.0000 C   0  0  0  0  0  0  0  0  0  0  0  0
   -6.5572    2.3898   -0.0000 N   0  0  0  0  0  0  0  0  0  0  0  0
   -7.8404    0.1648   -0.0000 N   0  0  0  0  0  0  0  0  0  0  0  0
   -9.1471    0.9182   -0.0000 C   0  0  0  0  0  0  0  0  0  0  0  0
  -10.4538    0.2001   -0.0000 C   0  0  0  0  0  0  0  0  0  0  0  0
   -9.1706    2.4251   -0.0000 C   0  0  0  0  0  0  0  0  0  0  0  0
  -11.7605    0.9536   -0.0000 C   0  0  0  0  0  0  0  0  0  0  0  0
  -10.4774    3.1785   -0.0000 C   0  0  0  0  0  0  0  0  0  0  0  0
  -11.7841    2.4604   -0.0000 C   0  0  0  0  0  0  0  0  0  0  0  0
  -13.0908    3.2138   -0.0000 N   0  0  0  0  0  0  0  0  0  0  0  0
  -12.6906    4.6618   -0.0000 C   0  0  0  0  0  0  0  0  0  0  0  0
  -14.5977    3.1903   -0.0000 C   0  0  0  0  0  0  0  0  0  0  0  0
  -13.9384    5.5212   -0.0000 C   0  0  0  0  0  0  0  0  0  0  0  0
  -15.1274    4.6147   -0.0000 C   0  0  0  0  0  0  0  0  0  0  0  0
  1  2  2  0
  2  3  1  0
  2  4  1  0
  3  5  1  0
  3  6  1  0
  4  7  2  0
  5  8  2  0
  5  9  1  0
  6 10  1  0
  8 11  1  0
  9 12  2  0
 11 13  2  0
 11 14  1  0
 14 15  1  0
 15 16  2  0
 15 17  1  0
 16 18  1  0
 17 19  2  0
 18 20  2  0
 20 21  1  0
 21 22  1  0
 21 23  1  0
 22 24  2  0
 23 25  2  0
  7  9  1  0
 12 13  1  0
 19 20  1  0
 24 25  1  0
M  END
>  <Target>  (42) 
Cyclin-Dependent Kinase 4 (CDK4))

>  <IC50 (nM)>  (42) 
2750.0

>  <pIC50>  (42) 
5.5607

$$$$
43.0
     RDKit          2D

 22 24  0  0  0  0  0  0  0  0999 V2000
    0.0000   -0.0000   -0.0000 O   0  0  0  0  0  0  0  0  0  0  0  0
   -1.3205    0.7613   -0.0000 C   0  0  0  0  0  0  0  0  0  0  0  0
   -2.6409    0.0357   -0.0000 N   0  0  0  0  0  0  0  0  0  0  0  0
   -1.3442    2.2840   -0.0000 C   0  0  0  0  0  0  0  0  0  0  0  0
   -3.9614    0.8565   -0.0000 C   0  0  0  0  0  0  0  0  0  0  0  0
   -2.6647   -1.4394   -0.0000 C   0  0  0  0  0  0  0  0  0  0  0  0
   -2.6647    3.0573   -0.0000 C   0  0  0  0  0  0  0  0  0  0  0  0
   -5.2818    0.1309   -0.0000 N   0  0  0  0  0  0  0  0  0  0  0  0
   -3.9851    2.3792   -0.0000 C   0  0  0  0  0  0  0  0  0  0  0  0
   -1.3918   -2.1651   -0.0000 C   0  0  0  0  0  0  0  0  0  0  0  0
   -6.6023    0.9041   -0.0000 C   0  0  0  0  0  0  0  0  0  0  0  0
   -5.3056    3.1405   -0.0000 C   0  0  0  0  0  0  0  0  0  0  0  0
   -1.4156   -3.6402   -0.0000 O   0  0  0  0  0  0  0  0  0  0  0  0
   -6.6260    2.4268   -0.0000 N   0  0  0  0  0  0  0  0  0  0  0  0
   -7.9227    0.1784   -0.0000 N   0  0  0  0  0  0  0  0  0  0  0  0
   -0.1428   -4.3658   -0.0000 C   0  0  0  0  0  0  0  0  0  0  0  0
   -7.9465   -1.2967   -0.0000 C   0  0  0  0  0  0  0  0  0  0  0  0
   -9.2670   -2.0223   -0.0000 C   0  0  0  0  0  0  0  0  0  0  0  0
   -6.6736   -2.0223   -0.0000 C   0  0  0  0  0  0  0  0  0  0  0  0
   -9.2907   -3.4974   -0.0000 C   0  0  0  0  0  0  0  0  0  0  0  0
   -6.6974   -3.4974   -0.0000 C   0  0  0  0  0  0  0  0  0  0  0  0
   -8.0179   -4.2350   -0.0000 C   0  0  0  0  0  0  0  0  0  0  0  0
  1  2  2  0
  2  3  1  0
  2  4  1  0
  3  5  1  0
  3  6  1  0
  4  7  2  0
  5  8  2  0
  5  9  1  0
  6 10  1  0
  8 11  1  0
  9 12  2  0
 10 13  1  0
 11 14  2  0
 11 15  1  0
 13 16  1  0
 15 17  1  0
 17 18  2  0
 17 19  1  0
 18 20  1  0
 19 21  2  0
 20 22  2  0
  7  9  1  0
 12 14  1  0
 21 22  1  0
M  END
>  <Target>  (43) 
Cyclin-Dependent Kinase 4 (CDK4))

>  <IC50 (nM)>  (43) 
2860.0

>  <pIC50>  (43) 
5.5436

$$$$
44.0
     RDKit          2D

 24 26  0  0  0  0  0  0  0  0999 V2000
    0.0000   -0.0000   -0.0000 O   0  0  0  0  0  0  0  0  0  0  0  0
   -1.3065    0.7533   -0.0000 C   0  0  0  0  0  0  0  0  0  0  0  0
   -2.6130    0.0353   -0.0000 N   0  0  0  0  0  0  0  0  0  0  0  0
   -1.3301    2.2599   -0.0000 C   0  0  0  0  0  0  0  0  0  0  0  0
   -3.9196    0.8475   -0.0000 C   0  0  0  0  0  0  0  0  0  0  0  0
   -2.6366   -1.4242   -0.0000 C   0  0  0  0  0  0  0  0  0  0  0  0
   -2.6366    3.0250   -0.0000 C   0  0  0  0  0  0  0  0  0  0  0  0
   -5.2261    0.1295   -0.0000 N   0  0  0  0  0  0  0  0  0  0  0  0
   -3.9431    2.3541   -0.0000 C   0  0  0  0  0  0  0  0  0  0  0  0
   -1.3771   -2.1422   -0.0000 C   0  0  0  0  0  0  0  0  0  0  0  0
   -6.5326    0.8828   -0.0000 C   0  0  0  0  0  0  0  0  0  0  0  0
   -5.2496    3.1192   -0.0000 C   0  0  0  0  0  0  0  0  0  0  0  0
   -6.5562    2.3894   -0.0000 N   0  0  0  0  0  0  0  0  0  0  0  0
   -7.8391    0.1648   -0.0000 N   0  0  0  0  0  0  0  0  0  0  0  0
   -9.1457    0.9299   -0.0000 C   0  0  0  0  0  0  0  0  0  0  0  0
  -10.4522    0.2119   -0.0000 C   0  0  0  0  0  0  0  0  0  0  0  0
   -9.1692    2.4365   -0.0000 C   0  0  0  0  0  0  0  0  0  0  0  0
  -11.7587    0.9770   -0.0000 C   0  0  0  0  0  0  0  0  0  0  0  0
  -10.4757    3.2016   -0.0000 C   0  0  0  0  0  0  0  0  0  0  0  0
  -13.0652    0.2590   -0.0000 O   0  0  0  0  0  0  0  0  0  0  0  0
  -11.7823    2.4836   -0.0000 C   0  0  0  0  0  0  0  0  0  0  0  0
  -14.5248    0.6709   -0.0000 C   0  0  0  0  0  0  0  0  0  0  0  0
  -13.0888    3.2487   -0.0000 O   0  0  0  0  0  0  0  0  0  0  0  0
  -14.3953    2.5307   -0.0000 C   0  0  0  0  0  0  0  0  0  0  0  0
  1  2  2  0
  2  3  1  0
  2  4  1  0
  3  5  1  0
  3  6  1  0
  4  7  2  0
  5  8  2  0
  5  9  1  0
  6 10  1  0
  8 11  1  0
  9 12  2  0
 11 13  2  0
 11 14  1  0
 14 15  1  0
 15 16  2  0
 15 17  1  0
 16 18  1  0
 17 19  2  0
 18 20  1  0
 18 21  2  0
 20 22  1  0
 21 23  1  0
 23 24  1  0
  7  9  1  0
 12 13  1  0
 19 21  1  0
M  END
>  <Target>  (44) 
Cyclin-Dependent Kinase 4 (CDK4))

>  <IC50 (nM)>  (44) 
4083.0

>  <pIC50>  (44) 
5.389

$$$$
45.0
     RDKit          2D

 21 23  0  0  0  0  0  0  0  0999 V2000
    0.0000   -0.0000   -0.0000 O   0  0  0  0  0  0  0  0  0  0  0  0
   -1.3191    0.7606   -0.0000 C   0  0  0  0  0  0  0  0  0  0  0  0
   -2.6382    0.0357   -0.0000 N   0  0  0  0  0  0  0  0  0  0  0  0
   -1.3429    2.2817   -0.0000 C   0  0  0  0  0  0  0  0  0  0  0  0
   -3.9574    0.8556   -0.0000 C   0  0  0  0  0  0  0  0  0  0  0  0
   -2.6620   -1.4380   -0.0000 C   0  0  0  0  0  0  0  0  0  0  0  0
   -2.6620    3.0423   -0.0000 C   0  0  0  0  0  0  0  0  0  0  0  0
   -5.2765    0.1307   -0.0000 N   0  0  0  0  0  0  0  0  0  0  0  0
   -3.9811    2.3768   -0.0000 C   0  0  0  0  0  0  0  0  0  0  0  0
   -1.3904   -2.1629   -0.0000 O   0  0  0  0  0  0  0  0  0  0  0  0
   -6.5956    0.8913   -0.0000 C   0  0  0  0  0  0  0  0  0  0  0  0
   -5.3002    3.1492   -0.0000 C   0  0  0  0  0  0  0  0  0  0  0  0
   -1.4142   -3.6365   -0.0000 C   0  0  0  0  0  0  0  0  0  0  0  0
   -6.6194    2.4124   -0.0000 N   0  0  0  0  0  0  0  0  0  0  0  0
   -7.9147    0.1664   -0.0000 N   0  0  0  0  0  0  0  0  0  0  0  0
   -7.9385   -1.3072   -0.0000 C   0  0  0  0  0  0  0  0  0  0  0  0
   -9.2576   -2.0322   -0.0000 C   0  0  0  0  0  0  0  0  0  0  0  0
   -6.6669   -2.0322   -0.0000 C   0  0  0  0  0  0  0  0  0  0  0  0
   -9.2814   -3.5058   -0.0000 C   0  0  0  0  0  0  0  0  0  0  0  0
   -6.6907   -3.5058   -0.0000 C   0  0  0  0  0  0  0  0  0  0  0  0
   -8.0098   -4.2426   -0.0000 C   0  0  0  0  0  0  0  0  0  0  0  0
  1  2  2  0
  2  3  1  0
  2  4  1  0
  3  5  1  0
  3  6  1  0
  4  7  2  0
  5  8  2  0
  5  9  1  0
  6 10  1  0
  8 11  1  0
  9 12  2  0
 10 13  1  0
 11 14  2  0
 11 15  1  0
 15 16  1  0
 16 17  2  0
 16 18  1  0
 17 19  1  0
 18 20  2  0
 19 21  2  0
  7  9  1  0
 12 14  1  0
 20 21  1  0
M  END
>  <Target>  (45) 
Cyclin-Dependent Kinase 4 (CDK4))

>  <IC50 (nM)>  (45) 
4150.0

>  <pIC50>  (45) 
5.382

$$$$
46.0
     RDKit          2D

 22 25  0  0  0  0  0  0  0  0999 V2000
    0.0000   -0.0000   -0.0000 O   0  0  0  0  0  0  0  0  0  0  0  0
   -1.3199    0.7729   -0.0000 C   0  0  0  0  0  0  0  0  0  0  0  0
   -2.6398    0.0476   -0.0000 N   0  0  0  0  0  0  0  0  0  0  0  0
   -1.3437    2.2950   -0.0000 C   0  0  0  0  0  0  0  0  0  0  0  0
   -3.9597    0.8681   -0.0000 C   0  0  0  0  0  0  0  0  0  0  0  0
   -2.6636   -1.4269   -0.0000 C   0  0  0  0  0  0  0  0  0  0  0  0
   -2.6636    3.0679   -0.0000 C   0  0  0  0  0  0  0  0  0  0  0  0
   -5.2796    0.1427   -0.0000 N   0  0  0  0  0  0  0  0  0  0  0  0
   -3.9835    2.3901   -0.0000 C   0  0  0  0  0  0  0  0  0  0  0  0
   -1.3913   -2.1523   -0.0000 C   0  0  0  0  0  0  0  0  0  0  0  0
   -6.5996    0.9156   -0.0000 C   0  0  0  0  0  0  0  0  0  0  0  0
   -5.3034    3.1630   -0.0000 C   0  0  0  0  0  0  0  0  0  0  0  0
   -1.4150   -3.6268   -0.0000 O   0  0  0  0  0  0  0  0  0  0  0  0
   -0.1189   -2.8776   -0.0000 C   0  0  0  0  0  0  0  0  0  0  0  0
   -6.6233    2.4377   -0.0000 N   0  0  0  0  0  0  0  0  0  0  0  0
   -7.9195    0.1903   -0.0000 N   0  0  0  0  0  0  0  0  0  0  0  0
   -7.9433   -1.2842   -0.0000 C   0  0  0  0  0  0  0  0  0  0  0  0
   -9.2632   -2.0096   -0.0000 C   0  0  0  0  0  0  0  0  0  0  0  0
   -6.6709   -2.0096   -0.0000 C   0  0  0  0  0  0  0  0  0  0  0  0
   -9.2870   -3.4841   -0.0000 C   0  0  0  0  0  0  0  0  0  0  0  0
   -6.6947   -3.4841   -0.0000 C   0  0  0  0  0  0  0  0  0  0  0  0
   -8.0146   -4.2213   -0.0000 C   0  0  0  0  0  0  0  0  0  0  0  0
  1  2  2  0
  2  3  1  0
  2  4  1  0
  3  5  1  0
  3  6  1  0
  4  7  2  0
  5  8  2  0
  5  9  1  0
 10  6  1  1
  8 11  1  0
  9 12  2  0
 10 13  1  0
 10 14  1  0
 11 15  2  0
 11 16  1  0
 16 17  1  0
 17 18  2  0
 17 19  1  0
 18 20  1  0
 19 21  2  0
 20 22  2  0
  7  9  1  0
 12 15  1  0
 13 14  1  0
 21 22  1  0
M  END
>  <Target>  (46) 
Cyclin-Dependent Kinase 4 (CDK4))

>  <IC50 (nM)>  (46) 
5000.0

>  <pIC50>  (46) 
5.301

$$$$
47.0
     RDKit          2D

 19 21  0  0  0  0  0  0  0  0999 V2000
    0.0000   -0.0000   -0.0000 O   0  0  0  0  0  0  0  0  0  0  0  0
   -1.3165    0.7591   -0.0000 C   0  0  0  0  0  0  0  0  0  0  0  0
   -2.6330    0.0356   -0.0000 N   0  0  0  0  0  0  0  0  0  0  0  0
   -1.3402    2.2772   -0.0000 C   0  0  0  0  0  0  0  0  0  0  0  0
   -3.9496    0.8540   -0.0000 C   0  0  0  0  0  0  0  0  0  0  0  0
   -2.6568   -1.4351   -0.0000 C   0  0  0  0  0  0  0  0  0  0  0  0
   -2.6568    3.0482   -0.0000 C   0  0  0  0  0  0  0  0  0  0  0  0
   -5.2661    0.1305   -0.0000 N   0  0  0  0  0  0  0  0  0  0  0  0
   -3.9733    2.3721   -0.0000 C   0  0  0  0  0  0  0  0  0  0  0  0
   -6.5826    0.8895   -0.0000 C   0  0  0  0  0  0  0  0  0  0  0  0
   -5.2898    3.1430   -0.0000 C   0  0  0  0  0  0  0  0  0  0  0  0
   -6.6063    2.4077   -0.0000 N   0  0  0  0  0  0  0  0  0  0  0  0
   -7.8991    0.1660   -0.0000 N   0  0  0  0  0  0  0  0  0  0  0  0
   -7.9228   -1.3047   -0.0000 C   0  0  0  0  0  0  0  0  0  0  0  0
   -9.2393   -2.0281   -0.0000 C   0  0  0  0  0  0  0  0  0  0  0  0
   -6.6538   -2.0281   -0.0000 C   0  0  0  0  0  0  0  0  0  0  0  0
   -9.2631   -3.4989   -0.0000 C   0  0  0  0  0  0  0  0  0  0  0  0
   -6.6775   -3.4989   -0.0000 C   0  0  0  0  0  0  0  0  0  0  0  0
   -7.9940   -4.2223   -0.0000 C   0  0  0  0  0  0  0  0  0  0  0  0
  1  2  2  0
  2  3  1  0
  2  4  1  0
  3  5  1  0
  3  6  1  0
  4  7  2  0
  5  8  2  0
  5  9  1  0
  8 10  1  0
  9 11  2  0
 10 12  2  0
 10 13  1  0
 13 14  1  0
 14 15  2  0
 14 16  1  0
 15 17  1  0
 16 18  2  0
 17 19  2  0
  7  9  1  0
 11 12  1  0
 18 19  1  0
M  END
>  <Target>  (47) 
Cyclin-Dependent Kinase 4 (CDK4))

>  <IC50 (nM)>  (47) 
5480.0

>  <pIC50>  (47) 
5.2612

$$$$
48.0
     RDKit          2D

 23 25  0  0  0  0  0  0  0  0999 V2000
    0.0000   -0.0000   -0.0000 O   0  0  0  0  0  0  0  0  0  0  0  0
   -1.3217    0.7621   -0.0000 C   0  0  0  0  0  0  0  0  0  0  0  0
   -2.6435    0.0357   -0.0000 N   0  0  0  0  0  0  0  0  0  0  0  0
   -1.3455    2.2862   -0.0000 C   0  0  0  0  0  0  0  0  0  0  0  0
   -3.9652    0.8573   -0.0000 C   0  0  0  0  0  0  0  0  0  0  0  0
   -2.6673   -1.4408   -0.0000 C   0  0  0  0  0  0  0  0  0  0  0  0
   -2.6673    3.0483   -0.0000 C   0  0  0  0  0  0  0  0  0  0  0  0
   -5.2869    0.1310   -0.0000 N   0  0  0  0  0  0  0  0  0  0  0  0
   -3.9890    2.3815   -0.0000 C   0  0  0  0  0  0  0  0  0  0  0  0
   -1.3932   -2.1672   -0.0000 C   0  0  0  0  0  0  0  0  0  0  0  0
   -6.6087    0.8931   -0.0000 C   0  0  0  0  0  0  0  0  0  0  0  0
   -5.3107    3.1436   -0.0000 C   0  0  0  0  0  0  0  0  0  0  0  0
   -1.4170   -3.6437   -0.0000 O   0  0  0  0  0  0  0  0  0  0  0  0
   -6.6325    2.4172   -0.0000 N   0  0  0  0  0  0  0  0  0  0  0  0
   -7.9304    0.1667   -0.0000 N   0  0  0  0  0  0  0  0  0  0  0  0
   -0.1429   -4.3701   -0.0000 C   0  0  0  0  0  0  0  0  0  0  0  0
   -7.9542   -1.3098   -0.0000 C   0  0  0  0  0  0  0  0  0  0  0  0
   -0.1667   -5.8466   -0.0000 C   0  0  0  0  0  0  0  0  0  0  0  0
   -9.2759   -2.0362   -0.0000 C   0  0  0  0  0  0  0  0  0  0  0  0
   -6.6801   -2.0362   -0.0000 C   0  0  0  0  0  0  0  0  0  0  0  0
   -9.2998   -3.5127   -0.0000 C   0  0  0  0  0  0  0  0  0  0  0  0
   -6.7039   -3.5127   -0.0000 C   0  0  0  0  0  0  0  0  0  0  0  0
   -8.0257   -4.2510   -0.0000 C   0  0  0  0  0  0  0  0  0  0  0  0
  1  2  2  0
  2  3  1  0
  2  4  1  0
  3  5  1  0
  3  6  1  0
  4  7  2  0
  5  8  2  0
  5  9  1  0
  6 10  1  0
  8 11  1  0
  9 12  2  0
 10 13  1  0
 11 14  2  0
 11 15  1  0
 13 16  1  0
 15 17  1  0
 16 18  1  0
 17 19  2  0
 17 20  1  0
 19 21  1  0
 20 22  2  0
 21 23  2  0
  7  9  1  0
 12 14  1  0
 22 23  1  0
M  END
>  <Target>  (48) 
Cyclin-Dependent Kinase 4 (CDK4))

>  <IC50 (nM)>  (48) 
7800.0

>  <pIC50>  (48) 
5.1079

$$$$
49.0
     RDKit          2D

 27 29  0  0  0  0  0  0  0  0999 V2000
    0.0000   -0.0000   -0.0000 F   0  0  0  0  0  0  0  0  0  0  0  0
   -0.0239    1.5318   -0.0000 C   0  0  0  0  0  0  0  0  0  0  0  0
   -1.3523    2.2976   -0.0000 F   0  0  0  0  0  0  0  0  0  0  0  0
   -0.0479    3.0635   -0.0000 O   0  0  0  0  0  0  0  0  0  0  0  0
   -1.3523    0.8018   -0.0000 C   0  0  0  0  0  0  0  0  0  0  0  0
    1.2326    3.8294   -0.0000 C   0  0  0  0  0  0  0  0  0  0  0  0
   -2.6806    1.5677   -0.0000 F   0  0  0  0  0  0  0  0  0  0  0  0
   -1.3762   -0.6821   -0.0000 F   0  0  0  0  0  0  0  0  0  0  0  0
    2.5131    3.0994   -0.0000 C   0  0  0  0  0  0  0  0  0  0  0  0
    1.2087    5.3612   -0.0000 C   0  0  0  0  0  0  0  0  0  0  0  0
    3.7935    3.8653   -0.0000 C   0  0  0  0  0  0  0  0  0  0  0  0
    2.4891    6.1271   -0.0000 C   0  0  0  0  0  0  0  0  0  0  0  0
    5.0740    3.1353   -0.0000 N   0  0  0  0  0  0  0  0  0  0  0  0
    3.7696    5.3971   -0.0000 C   0  0  0  0  0  0  0  0  0  0  0  0
    6.3544    3.9012   -0.0000 C   0  0  0  0  0  0  0  0  0  0  0  0
    7.6349    3.1712   -0.0000 N   0  0  0  0  0  0  0  0  0  0  0  0
    6.3305    5.4330   -0.0000 N   0  0  0  0  0  0  0  0  0  0  0  0
    8.9154    3.9371   -0.0000 C   0  0  0  0  0  0  0  0  0  0  0  0
    7.6110    6.2108   -0.0000 C   0  0  0  0  0  0  0  0  0  0  0  0
   10.1958    3.1593   -0.0000 N   0  0  0  0  0  0  0  0  0  0  0  0
    8.8914    5.4689   -0.0000 C   0  0  0  0  0  0  0  0  0  0  0  0
   11.4763    3.9251   -0.0000 C   0  0  0  0  0  0  0  0  0  0  0  0
   10.1719    1.6754   -0.0000 C   0  0  0  0  0  0  0  0  0  0  0  0
   10.1719    6.1989   -0.0000 C   0  0  0  0  0  0  0  0  0  0  0  0
   12.7567    3.1952   -0.0000 O   0  0  0  0  0  0  0  0  0  0  0  0
   11.4523    5.4569   -0.0000 C   0  0  0  0  0  0  0  0  0  0  0  0
   11.4523    0.9454   -0.0000 C   0  0  0  0  0  0  0  0  0  0  0  0
  1  2  1  0
  2  3  1  0
  2  4  1  0
  2  5  1  0
  4  6  1  0
  5  7  1  0
  5  8  1  0
  6  9  2  0
  6 10  1  0
  9 11  1  0
 10 12  2  0
 11 13  1  0
 11 14  2  0
 13 15  1  0
 15 16  2  0
 15 17  1  0
 16 18  1  0
 17 19  2  0
 18 20  1  0
 18 21  2  0
 20 22  1  0
 20 23  1  0
 21 24  1  0
 22 25  2  0
 22 26  1  0
 23 27  1  0
 12 14  1  0
 19 21  1  0
 24 26  2  0
M  END
>  <Target>  (49) 
Cyclin-Dependent Kinase 4 (CDK4))

>  <IC50 (nM)>  (49) 
7833.0

>  <pIC50>  (49) 
5.1061

$$$$
50.0
     RDKit          2D

 25 28  0  0  0  0  0  0  0  0999 V2000
    0.0000   -0.0000   -0.0000 O   0  0  0  0  0  0  0  0  0  0  0  0
   -1.3237    0.7632   -0.0000 C   0  0  0  0  0  0  0  0  0  0  0  0
   -2.6475    0.0358   -0.0000 N   0  0  0  0  0  0  0  0  0  0  0  0
   -1.3476    2.2897   -0.0000 C   0  0  0  0  0  0  0  0  0  0  0  0
   -3.9712    0.8586   -0.0000 C   0  0  0  0  0  0  0  0  0  0  0  0
   -2.6713   -1.4430   -0.0000 C   0  0  0  0  0  0  0  0  0  0  0  0
   -2.6713    3.0530   -0.0000 C   0  0  0  0  0  0  0  0  0  0  0  0
   -5.2950    0.1312   -0.0000 N   0  0  0  0  0  0  0  0  0  0  0  0
   -3.9951    2.3851   -0.0000 C   0  0  0  0  0  0  0  0  0  0  0  0
   -1.3953   -2.1705   -0.0000 C   0  0  0  0  0  0  0  0  0  0  0  0
   -6.6187    0.9063   -0.0000 C   0  0  0  0  0  0  0  0  0  0  0  0
   -5.3188    3.1484   -0.0000 C   0  0  0  0  0  0  0  0  0  0  0  0
   -1.4192   -3.6492   -0.0000 C   0  0  0  0  0  0  0  0  0  0  0  0
   -0.1193   -1.4072   -0.0000 C   0  0  0  0  0  0  0  0  0  0  0  0
   -6.6426    2.4328   -0.0000 N   0  0  0  0  0  0  0  0  0  0  0  0
   -7.9425    0.1789   -0.0000 N   0  0  0  0  0  0  0  0  0  0  0  0
   -0.1431   -4.3767   -0.0000 C   0  0  0  0  0  0  0  0  0  0  0  0
    1.1568   -2.1347   -0.0000 C   0  0  0  0  0  0  0  0  0  0  0  0
   -7.9663   -1.2999   -0.0000 C   0  0  0  0  0  0  0  0  0  0  0  0
    1.1329   -3.6135   -0.0000 C   0  0  0  0  0  0  0  0  0  0  0  0
   -9.2901   -2.0274   -0.0000 C   0  0  0  0  0  0  0  0  0  0  0  0
   -6.6903   -2.0274   -0.0000 C   0  0  0  0  0  0  0  0  0  0  0  0
   -9.3139   -3.5061   -0.0000 C   0  0  0  0  0  0  0  0  0  0  0  0
   -6.7141   -3.5061   -0.0000 C   0  0  0  0  0  0  0  0  0  0  0  0
   -8.0379   -4.2455   -0.0000 C   0  0  0  0  0  0  0  0  0  0  0  0
  1  2  2  0
  2  3  1  0
  2  4  1  0
  3  5  1  0
  3  6  1  0
  4  7  2  0
  5  8  2  0
  5  9  1  0
  6 10  1  0
  8 11  1  0
  9 12  2  0
 10 13  1  0
 10 14  1  0
 11 15  2  0
 11 16  1  0
 13 17  1  0
 14 18  1  0
 16 19  1  0
 17 20  1  0
 19 21  2  0
 19 22  1  0
 21 23  1  0
 22 24  2  0
 23 25  2  0
  7  9  1  0
 12 15  1  0
 18 20  1  0
 24 25  1  0
M  END
>  <Target>  (50) 
Cyclin-Dependent Kinase 4 (CDK4))

>  <IC50 (nM)>  (50) 
13500.0

>  <pIC50>  (50) 
4.8697

$$$$
51.0
     RDKit          2D

 23 25  0  0  0  0  0  0  0  0999 V2000
    0.0000   -0.0000   -0.0000 O   0  0  0  0  0  0  0  0  0  0  0  0
   -1.3194    0.7726   -0.0000 C   0  0  0  0  0  0  0  0  0  0  0  0
   -2.6387    0.0475   -0.0000 N   0  0  0  0  0  0  0  0  0  0  0  0
   -1.3431    2.2940   -0.0000 C   0  0  0  0  0  0  0  0  0  0  0  0
   -3.9581    0.8677   -0.0000 C   0  0  0  0  0  0  0  0  0  0  0  0
   -2.6625   -1.4263   -0.0000 C   0  0  0  0  0  0  0  0  0  0  0  0
   -2.6625    3.0548   -0.0000 C   0  0  0  0  0  0  0  0  0  0  0  0
   -5.2775    0.1426   -0.0000 N   0  0  0  0  0  0  0  0  0  0  0  0
   -3.9819    2.3891   -0.0000 C   0  0  0  0  0  0  0  0  0  0  0  0
   -1.3907   -2.1514   -0.0000 C   0  0  0  0  0  0  0  0  0  0  0  0
   -6.5968    0.9034   -0.0000 C   0  0  0  0  0  0  0  0  0  0  0  0
   -5.3012    3.1617   -0.0000 C   0  0  0  0  0  0  0  0  0  0  0  0
   -0.1189   -1.3907   -0.0000 O   0  0  0  0  0  0  0  0  0  0  0  0
   -1.4145   -3.6253   -0.0000 O   0  0  0  0  0  0  0  0  0  0  0  0
   -6.6206    2.4248   -0.0000 N   0  0  0  0  0  0  0  0  0  0  0  0
   -7.9162    0.1783   -0.0000 N   0  0  0  0  0  0  0  0  0  0  0  0
   -2.7338   -4.3504   -0.0000 C   0  0  0  0  0  0  0  0  0  0  0  0
   -7.9400   -1.2956   -0.0000 C   0  0  0  0  0  0  0  0  0  0  0  0
   -9.2594   -2.0207   -0.0000 C   0  0  0  0  0  0  0  0  0  0  0  0
   -6.6682   -2.0207   -0.0000 C   0  0  0  0  0  0  0  0  0  0  0  0
   -9.2831   -3.4945   -0.0000 C   0  0  0  0  0  0  0  0  0  0  0  0
   -6.6919   -3.4945   -0.0000 C   0  0  0  0  0  0  0  0  0  0  0  0
   -8.0113   -4.2315   -0.0000 C   0  0  0  0  0  0  0  0  0  0  0  0
  1  2  2  0
  2  3  1  0
  2  4  1  0
  3  5  1  0
  3  6  1  0
  4  7  2  0
  5  8  2  0
  5  9  1  0
  6 10  1  0
  8 11  1  0
  9 12  2  0
 10 13  2  0
 10 14  1  0
 11 15  2  0
 11 16  1  0
 14 17  1  0
 16 18  1  0
 18 19  2  0
 18 20  1  0
 19 21  1  0
 20 22  2  0
 21 23  2  0
  7  9  1  0
 12 15  1  0
 22 23  1  0
M  END
>  <Target>  (51) 
Cyclin-Dependent Kinase 4 (CDK4))

>  <IC50 (nM)>  (51) 
31000.0

>  <pIC50>  (51) 
4.5086

$$$$
